# generated using pymatgen
data_Mg4CN4
_symmetry_space_group_name_H-M   'P 1'
_cell_length_a   10.22808240
_cell_length_b   3.20187970
_cell_length_c   12.59012280
_cell_angle_alpha   90.00000000
_cell_angle_beta   90.00000000
_cell_angle_gamma   90.00000000
_symmetry_Int_Tables_number   1
_chemical_formula_structural   Mg4CN4
_chemical_formula_sum   'Mg16 C4 N16'
_cell_volume   412.31505722
_cell_formula_units_Z   4
loop_
 _symmetry_equiv_pos_site_id
 _symmetry_equiv_pos_as_xyz
  1  'x, y, z'
loop_
 _atom_site_type_symbol
 _atom_site_label
 _atom_site_symmetry_multiplicity
 _atom_site_fract_x
 _atom_site_fract_y
 _atom_site_fract_z
 _atom_site_occupancy
  Mg  Mg0  1  0.13568522  0.25000000  0.15993088  1
  Mg  Mg1  1  0.63568522  0.25000000  0.34006912  1
  Mg  Mg2  1  0.86431478  0.75000000  0.84006912  1
  Mg  Mg3  1  0.36431478  0.75000000  0.65993088  1
  Mg  Mg4  1  0.89398981  0.25000000  0.04898634  1
  Mg  Mg5  1  0.39398981  0.25000000  0.45101366  1
  Mg  Mg6  1  0.10601019  0.75000000  0.95101366  1
  Mg  Mg7  1  0.60601019  0.75000000  0.54898634  1
  Mg  Mg8  1  0.35507407  0.25000000  0.86266676  1
  Mg  Mg9  1  0.85507407  0.25000000  0.63733324  1
  Mg  Mg10  1  0.64492593  0.75000000  0.13733324  1
  Mg  Mg11  1  0.14492593  0.75000000  0.36266676  1
  Mg  Mg12  1  0.11665735  0.25000000  0.76313071  1
  Mg  Mg13  1  0.61665735  0.25000000  0.73686929  1
  Mg  Mg14  1  0.88334265  0.75000000  0.23686929  1
  Mg  Mg15  1  0.38334265  0.75000000  0.26313071  1
  C  C16  1  0.38152355  0.25000000  0.07507140  1
  C  C17  1  0.88152355  0.25000000  0.42492860  1
  C  C18  1  0.61847645  0.75000000  0.92492860  1
  C  C19  1  0.11847645  0.75000000  0.57507140  1
  N  N20  1  0.75597250  0.25000000  0.20201281  1
  N  N21  1  0.25597250  0.25000000  0.29798719  1
  N  N22  1  0.24402750  0.75000000  0.79798719  1
  N  N23  1  0.74402750  0.75000000  0.70201281  1
  N  N24  1  0.98063132  0.25000000  0.88766297  1
  N  N25  1  0.48063132  0.25000000  0.61233703  1
  N  N26  1  0.01936868  0.75000000  0.11233703  1
  N  N27  1  0.51936868  0.75000000  0.38766297  1
  N  N28  1  0.27871766  0.25000000  0.02327575  1
  N  N29  1  0.77871766  0.25000000  0.47672425  1
  N  N30  1  0.72128234  0.75000000  0.97672425  1
  N  N31  1  0.22128234  0.75000000  0.52327575  1
  N  N32  1  0.48189332  0.25000000  0.13103088  1
  N  N33  1  0.98189332  0.25000000  0.36896912  1
  N  N34  1  0.51810668  0.75000000  0.86896912  1
  N  N35  1  0.01810668  0.75000000  0.63103088  1
