# generated using pymatgen
data_Na3GaN2
_symmetry_space_group_name_H-M   'P 1'
_cell_length_a   9.43709731
_cell_length_b   10.89702135
_cell_length_c   10.89702185
_cell_angle_alpha   89.99999998
_cell_angle_beta   125.26438782
_cell_angle_gamma   54.73561033
_symmetry_Int_Tables_number   1
_chemical_formula_structural   Na3GaN2
_chemical_formula_sum   'Na24 Ga8 N16'
_cell_volume   646.98386452
_cell_formula_units_Z   8
loop_
 _symmetry_equiv_pos_site_id
 _symmetry_equiv_pos_as_xyz
  1  'x, y, z'
loop_
 _atom_site_type_symbol
 _atom_site_label
 _atom_site_symmetry_multiplicity
 _atom_site_fract_x
 _atom_site_fract_y
 _atom_site_fract_z
 _atom_site_occupancy
  Na  Na0  1  0.19834624  0.05759912  0.96293911  1
  Na  Na1  1  0.80165376  0.75594537  0.53706089  1
  Na  Na2  1  0.80165376  0.44240088  0.76459186  1
  Na  Na3  1  0.19834624  0.74405463  0.73540814  1
  Na  Na4  1  0.27246903  0.76459186  0.29300726  1
  Na  Na5  1  0.72753097  0.73540814  0.02053823  1
  Na  Na6  1  0.27246903  0.96293911  0.47946177  1
  Na  Na7  1  0.72753097  0.53706089  0.20699274  1
  Na  Na8  1  0.68645551  0.02053823  0.74405463  1
  Na  Na9  1  0.68645551  0.29300726  0.44240088  1
  Na  Na10  1  0.31354449  0.20699274  0.75594537  1
  Na  Na11  1  0.31354449  0.47946177  0.05759912  1
  Na  Na12  1  0.80165376  0.94240088  0.03706089  1
  Na  Na13  1  0.19834624  0.24405463  0.46293911  1
  Na  Na14  1  0.19834624  0.55759912  0.23540814  1
  Na  Na15  1  0.80165376  0.25594537  0.26459186  1
  Na  Na16  1  0.72753097  0.23540814  0.70699274  1
  Na  Na17  1  0.27246903  0.26459186  0.97946177  1
  Na  Na18  1  0.72753097  0.03706089  0.52053823  1
  Na  Na19  1  0.27246903  0.46293911  0.79300726  1
  Na  Na20  1  0.31354449  0.97946177  0.25594537  1
  Na  Na21  1  0.31354449  0.70699274  0.55759912  1
  Na  Na22  1  0.68645551  0.79300726  0.24405463  1
  Na  Na23  1  0.68645551  0.52053823  0.94240088  1
  Ga  Ga24  1  0.21404472  0.00000000  0.71404472  1
  Ga  Ga25  1  0.78595528  0.71404472  0.78595528  1
  Ga  Ga26  1  0.78595528  0.50000000  0.50000000  1
  Ga  Ga27  1  0.21404472  0.78595528  0.00000000  1
  Ga  Ga28  1  0.78595528  -0.00000000  0.28595528  1
  Ga  Ga29  1  0.21404472  0.28595528  0.21404472  1
  Ga  Ga30  1  0.21404472  0.50000000  0.50000000  1
  Ga  Ga31  1  0.78595528  0.21404472  0.00000000  1
  N  N32  1  0.00000000  -0.00000000  0.50000000  1
  N  N33  1  0.00000000  0.50000000  0.00000000  1
  N  N34  1  0.00000000  0.50000000  0.50000000  1
  N  N35  1  0.00000000  -0.00000000  0.00000000  1
  N  N36  1  0.50000000  0.94093201  0.75000000  1
  N  N37  1  0.50000000  0.55906799  0.25000000  1
  N  N38  1  -0.00000000  0.25000000  0.69093201  1
  N  N39  1  0.00000000  0.75000000  0.80906799  1
  N  N40  1  0.61813598  0.69093201  0.55906799  1
  N  N41  1  0.38186402  0.80906799  0.94093201  1
  N  N42  1  0.50000000  0.05906799  0.25000000  1
  N  N43  1  0.50000000  0.44093201  0.75000000  1
  N  N44  1  0.00000000  0.75000000  0.30906799  1
  N  N45  1  -0.00000000  0.25000000  0.19093201  1
  N  N46  1  0.38186402  0.30906799  0.44093201  1
  N  N47  1  0.61813598  0.19093201  0.05906799  1
