# generated using pymatgen
data_Al2O3
_symmetry_space_group_name_H-M   'P 1'
_cell_length_a   9.92862108
_cell_length_b   11.10129381
_cell_length_c   10.17852273
_cell_angle_alpha   88.70526586
_cell_angle_beta   86.35394224
_cell_angle_gamma   89.75298438
_symmetry_Int_Tables_number   1
_chemical_formula_structural   Al2O3
_chemical_formula_sum   'Al40 O60'
_cell_volume   1119.32100991
_cell_formula_units_Z   20
loop_
 _symmetry_equiv_pos_site_id
 _symmetry_equiv_pos_as_xyz
  1  'x, y, z'
loop_
 _atom_site_type_symbol
 _atom_site_label
 _atom_site_symmetry_multiplicity
 _atom_site_fract_x
 _atom_site_fract_y
 _atom_site_fract_z
 _atom_site_occupancy
  Al  Al0  1  0.15334402  0.51720599  0.52075615  1
  Al  Al1  1  0.66522837  0.14072682  0.73085178  1
  Al  Al2  1  0.94097521  0.69305507  0.37497952  1
  Al  Al3  1  0.30680049  0.59508968  0.87219361  1
  Al  Al4  1  0.44849662  0.99554075  0.63147527  1
  Al  Al5  1  0.90225455  0.34978118  0.73634382  1
  Al  Al6  1  0.18908206  0.20398947  0.50783362  1
  Al  Al7  1  0.41620924  0.14145078  0.87527407  1
  Al  Al8  1  0.25145799  0.19215919  0.19721254  1
  Al  Al9  1  0.82175256  0.56581887  0.63479363  1
  Al  Al10  1  0.74997589  0.57111772  0.90043390  1
  Al  Al11  1  0.84996418  0.06690008  0.00067676  1
  Al  Al12  1  0.69135431  0.01803352  0.44728782  1
  Al  Al13  1  0.68358601  0.84555164  0.94650166  1
  Al  Al14  1  0.03890512  0.70536391  0.75506223  1
  Al  Al15  1  0.96878344  0.31271604  0.04067163  1
  Al  Al16  1  0.12305959  0.18438371  0.81232292  1
  Al  Al17  1  0.13889489  0.94004908  0.34912407  1
  Al  Al18  1  0.55515998  0.91317995  0.24579241  1
  Al  Al19  1  0.18666695  0.92709251  0.81518788  1
  Al  Al20  1  0.46391913  0.17372531  0.42522970  1
  Al  Al21  1  0.20228450  0.74326325  0.03330286  1
  Al  Al22  1  0.43731444  0.63761494  0.36433739  1
  Al  Al23  1  0.96491541  0.15051861  0.29584472  1
  Al  Al24  1  0.27988656  0.77363562  0.56708580  1
  Al  Al25  1  0.92152503  0.13942785  0.54342427  1
  Al  Al26  1  0.86249436  0.94040418  0.74002928  1
  Al  Al27  1  0.67704799  0.33164466  0.96374025  1
  Al  Al28  1  0.63886717  0.40995495  0.43611180  1
  Al  Al29  1  0.51082322  0.56162919  0.60078630  1
  Al  Al30  1  0.46199515  0.41033219  0.21453481  1
  Al  Al31  1  0.67926216  0.77597478  0.61809820  1
  Al  Al32  1  0.50313904  0.70687101  0.09991099  1
  Al  Al33  1  0.91569413  0.41282852  0.43608034  1
  Al  Al34  1  0.10233641  0.02530700  0.07215029  1
  Al  Al35  1  0.84450214  0.52235091  0.18270484  1
  Al  Al36  1  0.35363424  0.34390643  0.99256614  1
  Al  Al37  1  0.17444985  0.49879396  0.14409793  1
  Al  Al38  1  0.86317763  0.86419349  0.20347135  1
  Al  Al39  1  0.35986494  0.37266730  0.67406661  1
  O  O40  1  0.34836672  0.18389328  0.04208362  1
  O  O41  1  0.31227187  0.87815389  0.69566684  1
  O  O42  1  0.83706370  0.70724416  0.53052867  1
  O  O43  1  0.64761364  0.62290773  0.68779246  1
  O  O44  1  0.00445928  0.44896933  0.12437267  1
  O  O45  1  0.77135884  0.43731464  0.54614637  1
  O  O46  1  0.00945980  0.27704676  0.42741533  1
  O  O47  1  0.02173445  0.31567481  0.86604699  1
  O  O48  1  0.00332842  0.83765440  0.31316686  1
  O  O49  1  0.47325075  0.56672853  0.19575429  1
  O  O50  1  0.58492099  0.22929632  0.86315727  1
  O  O51  1  0.07348765  0.16056606  0.65081803  1
  O  O52  1  0.82171125  0.22368178  0.67057041  1
  O  O53  1  0.37557698  0.52756695  0.73285271  1
  O  O54  1  0.83732865  0.99489889  0.58252932  1
  O  O55  1  0.51892617  0.37530325  0.04612341  1
  O  O56  1  0.15496240  0.68259620  0.87627467  1
  O  O57  1  0.55621353  0.88684122  0.06826515  1
  O  O58  1  0.75722036  0.42301416  0.81968311  1
  O  O59  1  0.28702616  0.36995610  0.18029989  1
  O  O60  1  0.29732689  0.20442901  0.35742845  1
  O  O61  1  0.73166093  0.83293050  0.77276870  1
  O  O62  1  0.25118449  0.86295977  0.43489362  1
  O  O63  1  0.80886967  0.23061518  0.03495960  1
  O  O64  1  0.77650887  0.04717724  0.84607193  1
  O  O65  1  0.58634475  0.89865323  0.55366905  1
  O  O66  1  0.58207268  0.56085902  0.42631712  1
  O  O67  1  0.01668171  0.54672727  0.39906782  1
  O  O68  1  0.02561913  0.87068282  0.75775404  1
  O  O69  1  0.65005140  0.68631069  0.97925612  1
  O  O70  1  0.72250129  0.90304697  0.30834104  1
  O  O71  1  0.28927921  0.55198677  0.40603297  1
  O  O72  1  0.85111657  0.67866815  0.22592816  1
  O  O73  1  0.88637479  0.62953208  0.79272556  1
  O  O74  1  0.15734748  0.65277297  0.16528235  1
  O  O75  1  0.79456771  0.41754911  0.30924696  1
  O  O76  1  0.06410951  0.07060534  0.42084871  1
  O  O77  1  0.43242117  0.69778857  0.54293014  1
  O  O78  1  0.02192269  0.08735748  0.93255531  1
  O  O79  1  0.82814746  0.89324820  0.02976323  1
  O  O80  1  0.37439011  0.70338605  0.98067602  1
  O  O81  1  0.07076259  0.21797862  0.15196761  1
  O  O82  1  0.34629344  0.12167635  0.56831213  1
  O  O83  1  0.53154995  0.04799717  0.33465020  1
  O  O84  1  0.59704703  0.12922246  0.55881069  1
  O  O85  1  0.16115249  0.89088384  0.99244018  1
  O  O86  1  0.46988409  0.77341314  0.26502696  1
  O  O87  1  0.81228227  0.13736725  0.39155130  1
  O  O88  1  0.25216464  0.47535667  0.97581215  1
  O  O89  1  0.20977495  0.02400962  0.20330721  1
  O  O90  1  0.14203562  0.66718359  0.61183796  1
  O  O91  1  0.25219277  0.07273769  0.83814552  1
  O  O92  1  0.53357253  0.31698060  0.33867853  1
  O  O93  1  0.51461601  0.03442711  0.78337113  1
  O  O94  1  0.32433050  0.28648162  0.82256643  1
  O  O95  1  0.98607462  0.46417573  0.63052561  1
  O  O96  1  0.76196485  0.47751153  0.04486340  1
  O  O97  1  0.51607088  0.39256235  0.58866555  1
  O  O98  1  0.22297200  0.36222069  0.57303697  1
  O  O99  1  0.93614468  0.02822695  0.16873438  1
