# generated using pymatgen
data_Fe3O4
_symmetry_space_group_name_H-M   'P 1'
_cell_length_a   6.10603601
_cell_length_b   6.10617316
_cell_length_c   17.06046197
_cell_angle_alpha   90.00233010
_cell_angle_beta   90.10718534
_cell_angle_gamma   90.01993120
_symmetry_Int_Tables_number   1
_chemical_formula_structural   Fe3O4
_chemical_formula_sum   'Fe24 O32'
_cell_volume   636.08986719
_cell_formula_units_Z   8
loop_
 _symmetry_equiv_pos_site_id
 _symmetry_equiv_pos_as_xyz
  1  'x, y, z'
loop_
 _atom_site_type_symbol
 _atom_site_label
 _atom_site_symmetry_multiplicity
 _atom_site_fract_x
 _atom_site_fract_y
 _atom_site_fract_z
 _atom_site_occupancy
  Fe  Fe0  1  0.49882067  0.75053350  0.36906402  1
  Fe  Fe1  1  0.49917472  0.24449962  0.86841145  1
  Fe  Fe2  1  0.00212270  0.25059529  0.12154516  1
  Fe  Fe3  1  0.00025166  0.75575513  0.62412249  1
  Fe  Fe4  1  0.00255181  0.75319015  0.12180652  1
  Fe  Fe5  1  0.00019095  0.25065357  0.62236909  1
  Fe  Fe6  1  0.99558544  0.49559116  0.30917471  1
  Fe  Fe7  1  0.00030780  0.49770478  0.81049385  1
  Fe  Fe8  1  0.24429912  0.49945378  0.99836821  1
  Fe  Fe9  1  0.75077999  0.50023376  0.49591221  1
  Fe  Fe10  1  0.75398389  0.49925925  0.99696967  1
  Fe  Fe11  1  0.24891141  0.50015075  0.49533262  1
  Fe  Fe12  1  0.49942697  0.00089318  0.05579399  1
  Fe  Fe13  1  0.49973549  0.99611511  0.55661743  1
  Fe  Fe14  1  0.50374965  0.50202482  0.18271884  1
  Fe  Fe15  1  0.49994304  0.50540281  0.68214564  1
  Fe  Fe16  1  -0.00105891  0.00298056  0.43248063  1
  Fe  Fe17  1  0.00071224  0.99881437  0.93338822  1
  Fe  Fe18  1  0.25142706  0.99873089  0.24456800  1
  Fe  Fe19  1  0.74961405  0.00197682  0.74487864  1
  Fe  Fe20  1  0.75418418  0.99675126  0.24239844  1
  Fe  Fe21  1  0.25018521  0.00128860  0.74448257  1
  Fe  Fe22  1  0.49895166  0.24669071  0.36852851  1
  Fe  Fe23  1  0.49978851  0.75310959  0.87024166  1
  O  O24  1  0.98826045  0.76033713  0.24841967  1
  O  O25  1  -0.00016997  0.24221574  0.74612381  1
  O  O26  1  0.51070885  0.24174845  0.25095955  1
  O  O27  1  0.50053503  0.75742040  0.74902697  1
  O  O28  1  0.99241251  0.23317235  0.24720608  1
  O  O29  1  0.00036516  0.74735337  0.74157795  1
  O  O30  1  0.24970076  0.50000627  0.11790250  1
  O  O31  1  0.76117131  0.51056624  0.61492524  1
  O  O32  1  0.75620112  0.50148876  0.11671147  1
  O  O33  1  0.23870053  0.51040945  0.61450347  1
  O  O34  1  0.24410851  0.00050137  0.11871974  1
  O  O35  1  0.76310108  0.99028698  0.61739928  1
  O  O36  1  0.74929467  0.00224057  0.12451046  1
  O  O37  1  0.23807529  0.99000254  0.61771400  1
  O  O38  1  0.50039528  0.72986626  0.99161880  1
  O  O39  1  0.50034140  0.26987280  0.49278735  1
  O  O40  1  -0.00060997  0.71838879  0.99658321  1
  O  O41  1  -0.00021213  0.27096139  0.49578234  1
  O  O42  1  0.50009282  0.27002010  0.99118927  1
  O  O43  1  0.50008817  0.72716701  0.49411206  1
  O  O44  1  0.99909698  0.28022018  0.99647635  1
  O  O45  1  0.00004134  0.73018503  0.49709549  1
  O  O46  1  0.26013410  0.48894179  0.37488427  1
  O  O47  1  0.73070710  0.50006715  0.87431865  1
  O  O48  1  0.73769224  0.48909109  0.37666502  1
  O  O49  1  0.26903184  0.49975918  0.87478299  1
  O  O50  1  0.26369157  0.01021631  0.37368524  1
  O  O51  1  0.71833015  0.99935964  0.86989427  1
  O  O52  1  0.73724748  0.00961822  0.36867671  1
  O  O53  1  0.28072052  0.99864491  0.86937987  1
  O  O54  1  0.50780336  0.76483890  0.24692829  1
  O  O55  1  0.49928718  0.25260820  0.74761308  1
