# generated using pymatgen
data_Ga(C2N3)3
_symmetry_space_group_name_H-M   'P 1'
_cell_length_a   7.48925171
_cell_length_b   13.20257103
_cell_length_c   11.56295947
_cell_angle_alpha   90.00000000
_cell_angle_beta   90.00000000
_cell_angle_gamma   28.18410035
_symmetry_Int_Tables_number   1
_chemical_formula_structural   Ga(C2N3)3
_chemical_formula_sum   'Ga2 C12 N18'
_cell_volume   539.99479664
_cell_formula_units_Z   2
loop_
 _symmetry_equiv_pos_site_id
 _symmetry_equiv_pos_as_xyz
  1  'x, y, z'
loop_
 _atom_site_type_symbol
 _atom_site_label
 _atom_site_symmetry_multiplicity
 _atom_site_fract_x
 _atom_site_fract_y
 _atom_site_fract_z
 _atom_site_occupancy
  Ga  Ga0  1  0.00000000  0.28089824  0.25000000  1
  Ga  Ga1  1  1.00000000  0.71910176  0.75000000  1
  C  C2  1  0.67955219  0.78369148  0.25000000  1
  C  C3  1  0.67955219  0.53675632  0.75000000  1
  C  C4  1  0.32044781  0.21630852  0.75000000  1
  C  C5  1  0.32044781  0.46324368  0.25000000  1
  C  C6  1  0.67943794  0.30447246  0.90718610  1
  C  C7  1  0.67943794  0.01608960  0.09281390  1
  C  C8  1  0.67943794  0.30447246  0.59281390  1
  C  C9  1  0.67943794  0.01608960  0.40718610  1
  C  C10  1  0.32056206  0.69552754  0.09281390  1
  C  C11  1  0.32056206  0.98391040  0.90718610  1
  C  C12  1  0.32056206  0.69552754  0.40718610  1
  C  C13  1  0.32056206  0.98391040  0.59281390  1
  N  N14  1  0.00000000  0.57688858  0.25000000  1
  N  N15  1  1.00000000  0.42311142  0.75000000  1
  N  N16  1  0.37712239  0.97213191  0.25000000  1
  N  N17  1  0.37712239  0.65074571  0.75000000  1
  N  N18  1  0.62287761  0.02786809  0.75000000  1
  N  N19  1  0.62287761  0.34925429  0.25000000  1
  N  N20  1  0.00000000  0.12566292  0.95568739  1
  N  N21  1  1.00000000  0.87433708  0.04431261  1
  N  N22  1  0.00000000  0.12566292  0.54431261  1
  N  N23  1  1.00000000  0.87433708  0.45568739  1
  N  N24  1  0.37648068  0.47085672  0.86861824  1
  N  N25  1  0.37648068  0.15266260  0.13138176  1
  N  N26  1  0.37648068  0.47085672  0.63138176  1
  N  N27  1  0.37648068  0.15266260  0.36861824  1
  N  N28  1  0.62351932  0.52914328  0.13138176  1
  N  N29  1  0.62351932  0.84733740  0.86861824  1
  N  N30  1  0.62351932  0.52914328  0.36861824  1
  N  N31  1  0.62351932  0.84733740  0.63138176  1
