# generated using pymatgen
data_Si7NiN10
_symmetry_space_group_name_H-M   'P 1'
_cell_length_a   6.64040986
_cell_length_b   6.96207227
_cell_length_c   9.69529184
_cell_angle_alpha   90.00000000
_cell_angle_beta   103.13939891
_cell_angle_gamma   90.00000000
_symmetry_Int_Tables_number   1
_chemical_formula_structural   Si7NiN10
_chemical_formula_sum   'Si14 Ni2 N20'
_cell_volume   436.48863084
_cell_formula_units_Z   2
loop_
 _symmetry_equiv_pos_site_id
 _symmetry_equiv_pos_as_xyz
  1  'x, y, z'
loop_
 _atom_site_type_symbol
 _atom_site_label
 _atom_site_symmetry_multiplicity
 _atom_site_fract_x
 _atom_site_fract_y
 _atom_site_fract_z
 _atom_site_occupancy
  Si  Si0  1  0.54339215  0.98259856  0.82238256  1
  Si  Si1  1  0.54339215  0.01740144  0.32238256  1
  Si  Si2  1  0.34960371  0.01828946  0.02245744  1
  Si  Si3  1  0.34960371  0.98171054  0.52245744  1
  Si  Si4  1  0.11676766  0.40070662  0.07470959  1
  Si  Si5  1  0.11676766  0.59929338  0.57470959  1
  Si  Si6  1  0.65541368  0.36036932  0.98733463  1
  Si  Si7  1  0.65541368  0.63963068  0.48733463  1
  Si  Si8  1  0.84668716  0.61873562  0.81159435  1
  Si  Si9  1  0.84668716  0.38126438  0.31159435  1
  Si  Si10  1  0.29981409  0.62343901  0.88185732  1
  Si  Si11  1  0.29981409  0.37656099  0.38185732  1
  Si  Si12  1  0.48606127  0.36647757  0.68543670  1
  Si  Si13  1  0.48606127  0.63352243  0.18543670  1
  Ni  Ni14  1  0.97048141  0.88380083  0.68590818  1
  Ni  Ni15  1  0.97048141  0.11619917  0.18590818  1
  N  N16  1  0.75435257  0.84804118  0.80739597  1
  N  N17  1  0.75435257  0.15195882  0.30739597  1
  N  N18  1  0.54948985  0.13867028  0.96644827  1
  N  N19  1  0.54948985  0.86132972  0.46644827  1
  N  N20  1  0.32447321  0.86863906  0.86994595  1
  N  N21  1  0.32447321  0.13136094  0.36994595  1
  N  N22  1  0.15322595  0.16001773  0.05135778  1
  N  N23  1  0.15322595  0.83998227  0.55135778  1
  N  N24  1  0.28855573  0.50551225  0.72363350  1
  N  N25  1  0.28855573  0.49448775  0.22363350  1
  N  N26  1  0.45053691  0.12150372  0.67126214  1
  N  N27  1  0.45053691  0.87849628  0.17126214  1
  N  N28  1  0.87864290  0.37461579  0.12847953  1
  N  N29  1  0.87864290  0.62538421  0.62847953  1
  N  N30  1  0.07562675  0.56912452  0.93724172  1
  N  N31  1  0.07562675  0.43087548  0.43724172  1
  N  N32  1  0.70071341  0.41619444  0.82150865  1
  N  N33  1  0.70071341  0.58380556  0.32150865  1
  N  N34  1  0.49846060  0.54241661  0.02034671  1
  N  N35  1  0.49846060  0.45758339  0.52034671  1
