# generated using pymatgen
data_Sc3Ge6N11
_symmetry_space_group_name_H-M   'P 1'
_cell_length_a   10.19912066
_cell_length_b   10.19912066
_cell_length_c   5.10740398
_cell_angle_alpha   90.00000000
_cell_angle_beta   90.00000000
_cell_angle_gamma   90.00000000
_symmetry_Int_Tables_number   1
_chemical_formula_structural   Sc3Ge6N11
_chemical_formula_sum   'Sc6 Ge12 N22'
_cell_volume   531.28269468
_cell_formula_units_Z   2
loop_
 _symmetry_equiv_pos_site_id
 _symmetry_equiv_pos_as_xyz
  1  'x, y, z'
loop_
 _atom_site_type_symbol
 _atom_site_label
 _atom_site_symmetry_multiplicity
 _atom_site_fract_x
 _atom_site_fract_y
 _atom_site_fract_z
 _atom_site_occupancy
  Sc  Sc0  1  0.30427319  0.80427319  0.94138799  1
  Sc  Sc1  1  0.69572681  0.19572681  0.94138799  1
  Sc  Sc2  1  0.19572681  0.30427319  0.94138799  1
  Sc  Sc3  1  0.80427319  0.69572681  0.94138799  1
  Sc  Sc4  1  0.50000000  0.50000000  0.95317294  1
  Sc  Sc5  1  -0.00000000  0.00000000  0.95317294  1
  Ge  Ge6  1  0.41942856  0.29521588  0.52544293  1
  Ge  Ge7  1  0.58057144  0.70478412  0.52544293  1
  Ge  Ge8  1  0.08057144  0.79521588  0.52544293  1
  Ge  Ge9  1  0.91942856  0.20478412  0.52544293  1
  Ge  Ge10  1  0.29521588  0.58057144  0.52544293  1
  Ge  Ge11  1  0.70478412  0.41942856  0.52544293  1
  Ge  Ge12  1  0.79521588  0.91942856  0.52544293  1
  Ge  Ge13  1  0.20478412  0.08057144  0.52544293  1
  Ge  Ge14  1  0.88038621  0.38038621  0.04975394  1
  Ge  Ge15  1  0.11961379  0.61961379  0.04975394  1
  Ge  Ge16  1  0.61961379  0.88038621  0.04975394  1
  Ge  Ge17  1  0.38038621  0.11961379  0.04975394  1
  N  N18  1  0.31763216  0.42245227  0.68746343  1
  N  N19  1  0.68236784  0.57754773  0.68746343  1
  N  N20  1  0.18236784  0.92245227  0.68746343  1
  N  N21  1  0.81763216  0.07754773  0.68746343  1
  N  N22  1  0.42245227  0.68236784  0.68746343  1
  N  N23  1  0.57754773  0.31763216  0.68746343  1
  N  N24  1  0.92245227  0.81763216  0.68746343  1
  N  N25  1  0.07754773  0.18236784  0.68746343  1
  N  N26  1  0.40600599  0.29435538  0.16528205  1
  N  N27  1  0.59399401  0.70564462  0.16528205  1
  N  N28  1  0.09399401  0.79435538  0.16528205  1
  N  N29  1  0.90600599  0.20564462  0.16528205  1
  N  N30  1  0.29435538  0.59399401  0.16528205  1
  N  N31  1  0.70564462  0.40600599  0.16528205  1
  N  N32  1  0.79435538  0.90600599  0.16528205  1
  N  N33  1  0.20564462  0.09399401  0.16528205  1
  N  N34  1  0.84554347  0.34554347  0.69838059  1
  N  N35  1  0.15445653  0.65445653  0.69838059  1
  N  N36  1  0.65445653  0.84554347  0.69838059  1
  N  N37  1  0.34554347  0.15445653  0.69838059  1
  N  N38  1  0.50000000  0.00000000  0.12356840  1
  N  N39  1  -0.00000000  0.50000000  0.12356840  1
