# generated using pymatgen
data_Zn4CuN3
_symmetry_space_group_name_H-M   'P 1'
_cell_length_a   6.41708068
_cell_length_b   6.94215067
_cell_length_c   12.05791726
_cell_angle_alpha   88.87414860
_cell_angle_beta   91.16248513
_cell_angle_gamma   117.58806967
_symmetry_Int_Tables_number   1
_chemical_formula_structural   Zn4CuN3
_chemical_formula_sum   'Zn16 Cu4 N12'
_cell_volume   475.95525758
_cell_formula_units_Z   4
loop_
 _symmetry_equiv_pos_site_id
 _symmetry_equiv_pos_as_xyz
  1  'x, y, z'
loop_
 _atom_site_type_symbol
 _atom_site_label
 _atom_site_symmetry_multiplicity
 _atom_site_fract_x
 _atom_site_fract_y
 _atom_site_fract_z
 _atom_site_occupancy
  Zn  Zn0  1  0.69097589  0.19272350  0.88818482  1
  Zn  Zn1  1  0.59817854  0.83877775  0.45604751  1
  Zn  Zn2  1  0.33312316  0.23484912  0.14812545  1
  Zn  Zn3  1  0.78480538  0.56825077  0.73111403  1
  Zn  Zn4  1  0.20500586  0.65905433  0.01997542  1
  Zn  Zn5  1  0.05736164  0.75043261  0.52189360  1
  Zn  Zn6  1  0.72533027  0.35552709  0.44851385  1
  Zn  Zn7  1  0.27912632  0.68491726  0.26529949  1
  Zn  Zn8  1  0.22934763  0.59872049  0.74708316  1
  Zn  Zn9  1  0.89696901  0.14050160  0.30942127  1
  Zn  Zn10  1  0.82859032  0.19489026  0.65121473  1
  Zn  Zn11  1  0.24204656  0.27079137  0.93312717  1
  Zn  Zn12  1  0.18635324  0.40482836  0.51138655  1
  Zn  Zn13  1  0.66935009  0.03792837  0.09301661  1
  Zn  Zn14  1  0.26657736  0.10598110  0.70447502  1
  Zn  Zn15  1  0.82112064  0.72844935  0.25433009  1
  Cu  Cu16  1  0.77447727  0.46538414  0.08371732  1
  Cu  Cu17  1  0.63730275  0.79573514  0.91309257  1
  Cu  Cu18  1  0.45370932  0.44398057  0.34922672  1
  Cu  Cu19  1  0.98747349  0.89509651  0.04862884  1
  N  N20  1  0.04758646  0.70287512  0.14535970  1
  N  N21  1  0.08504339  0.78828395  0.68500498  1
  N  N22  1  0.61379932  0.25624656  0.74155568  1
  N  N23  1  0.26125451  0.68123179  0.43336061  1
  N  N24  1  0.33024187  0.57726339  0.90088428  1
  N  N25  1  0.82310242  0.14515629  0.47936836  1
  N  N26  1  0.89753433  0.06507689  0.95326421  1
  N  N27  1  0.20035981  0.33684271  0.25225674  1
  N  N28  1  0.17516445  0.33077725  0.66847869  1
  N  N29  1  0.63458231  0.89261319  0.23301700  1
  N  N30  1  0.51263453  0.22020885  0.02497949  1
  N  N31  1  0.75146983  0.63660633  0.42057906  1
