# generated using pymatgen
data_ZnO
_symmetry_space_group_name_H-M   'P 1'
_cell_length_a   10.64056160
_cell_length_b   10.93882105
_cell_length_c   9.47224256
_cell_angle_alpha   92.66893687
_cell_angle_beta   87.73295646
_cell_angle_gamma   80.62114886
_symmetry_Int_Tables_number   1
_chemical_formula_structural   ZnO
_chemical_formula_sum   'Zn40 O40'
_cell_volume   1085.36154582
_cell_formula_units_Z   40
loop_
 _symmetry_equiv_pos_site_id
 _symmetry_equiv_pos_as_xyz
  1  'x, y, z'
loop_
 _atom_site_type_symbol
 _atom_site_label
 _atom_site_symmetry_multiplicity
 _atom_site_fract_x
 _atom_site_fract_y
 _atom_site_fract_z
 _atom_site_occupancy
  Zn  Zn0  1  0.76890702  0.85470048  0.40753888  1
  Zn  Zn1  1  0.79409569  0.32217439  0.79862794  1
  Zn  Zn2  1  0.60870818  0.63716220  0.25785991  1
  Zn  Zn3  1  0.29360907  0.04793776  0.64468555  1
  Zn  Zn4  1  0.29918619  0.67254060  0.18885347  1
  Zn  Zn5  1  0.78737245  0.48638720  0.56665019  1
  Zn  Zn6  1  0.99133347  0.92598835  0.58044403  1
  Zn  Zn7  1  0.29034169  0.16503061  0.37517972  1
  Zn  Zn8  1  0.04404558  0.19940576  0.58634728  1
  Zn  Zn9  1  0.04406611  0.64928286  0.40578751  1
  Zn  Zn10  1  0.81757370  0.55926326  0.98170198  1
  Zn  Zn11  1  0.54519748  0.49995076  0.96999721  1
  Zn  Zn12  1  0.24941388  0.85499512  0.38513683  1
  Zn  Zn13  1  0.01650568  0.47585942  0.69436347  1
  Zn  Zn14  1  0.27574310  0.40442375  0.30536531  1
  Zn  Zn15  1  0.49489012  0.90313135  0.34617756  1
  Zn  Zn16  1  0.11116578  0.23418898  0.11017953  1
  Zn  Zn17  1  0.21989498  0.29907422  0.78586811  1
  Zn  Zn18  1  0.22600909  0.56702852  0.91040969  1
  Zn  Zn19  1  0.60302019  0.85087215  0.04332721  1
  Zn  Zn20  1  0.51940948  0.69644044  0.53613888  1
  Zn  Zn21  1  0.01136572  0.13607739  0.86743793  1
  Zn  Zn22  1  0.80630551  -0.00057609  0.96007077  1
  Zn  Zn23  1  0.40468283  0.75042117  0.87027337  1
  Zn  Zn24  1  0.34125593  0.51363118  0.61599009  1
  Zn  Zn25  1  0.92678499  0.71581925  0.09038072  1
  Zn  Zn26  1  0.33253928  0.01555220  0.93107915  1
  Zn  Zn27  1  0.83080640  0.74739624  0.76565540  1
  Zn  Zn28  1  0.20615458  0.79454024  0.69547554  1
  Zn  Zn29  1  0.74868519  0.19583389  0.50302196  1
  Zn  Zn30  1  0.99890801  0.90162562  0.25115736  1
  Zn  Zn31  1  0.66292234  0.94884467  0.67013515  1
  Zn  Zn32  1  0.58118029  0.39774101  0.42629392  1
  Zn  Zn33  1  0.37261002  0.27566986  0.02479933  1
  Zn  Zn34  1  0.78429559  0.29666279  0.11980975  1
  Zn  Zn35  1  0.04622569  0.49456031  0.09791728  1
  Zn  Zn36  1  0.53897008  0.23727454  0.75955163  1
  Zn  Zn37  1  0.12858599  0.88903810  0.00264215  1
  Zn  Zn38  1  0.97965983  0.36766914  0.36095867  1
  Zn  Zn39  1  0.58051874  0.13694278  0.23597666  1
  O  O40  1  0.67331672  0.36742905  0.63946120  1
  O  O41  1  0.62815877  0.11977545  0.62908077  1
  O  O42  1  0.42259879  0.87497738  0.01626381  1
  O  O43  1  0.60409346  0.84290885  0.50984809  1
  O  O44  1  0.81434612  0.03238754  0.39389019  1
  O  O45  1  0.99128675  0.30953736  0.78025476  1
  O  O46  1  0.17961334  0.83545087  0.19734772  1
  O  O47  1  0.48169341  0.35503590  0.90468320  1
  O  O48  1  0.84523062  0.57330344  0.76711556  1
  O  O49  1  0.14625825  0.74165971  0.87550760  1
  O  O50  1  0.22809789  0.21464463  0.58589054  1
  O  O51  1  0.67608600  0.26722998  0.28955872  1
  O  O52  1  0.39939989  0.43070020  0.44142677  1
  O  O53  1  0.72340198  0.42109934  0.97670181  1
  O  O54  1  0.94596943  0.35875276  0.15746452  1
  O  O55  1  0.07126182  0.03920263  0.68990189  1
  O  O56  1  0.42367048  0.64501368  0.69182117  1
  O  O57  1  0.65095639  0.55816709  0.43094069  1
  O  O58  1  0.43028389  0.72848858  0.33109483  1
  O  O59  1  0.13554148  0.77742489  0.51101425  1
  O  O60  1  0.32968996  0.90177261  0.74497725  1
  O  O61  1  0.33441177  0.99498954  0.42840780  1
  O  O62  1  0.93533360  0.89143651  0.05310925  1
  O  O63  1  0.14105383  0.07293765  0.00477580  1
  O  O64  1  0.37983168  0.60614654  0.00355456  1
  O  O65  1  0.96775440  0.51703378  0.49664860  1
  O  O66  1  0.82829735  0.16789263  0.94587967  1
  O  O67  1  0.40582892  0.21728412  0.21500505  1
  O  O68  1  0.91106923  0.75489701  0.29995692  1
  O  O69  1  0.15561795  0.28271349  0.30307938  1
  O  O70  1  0.16952127  0.55949586  0.24623164  1
  O  O71  1  0.89645405  0.28205857  0.50125754  1
  O  O72  1  0.19064397  0.37118972  0.99841891  1
  O  O73  1  0.95710637  0.02368252  0.40293727  1
  O  O74  1  0.19752118  0.48037112  0.73100003  1
  O  O75  1  0.62144679  0.95866984  0.21861601  1
  O  O76  1  0.84442412  0.85078314  0.61213558  1
  O  O77  1  0.70678881  0.88705712  0.86937680  1
  O  O78  1  0.65662018  0.66838118  0.07179657  1
  O  O79  1  0.36243115  0.16402925  0.84099020  1
