# generated using pymatgen
data_BeO
_symmetry_space_group_name_H-M   'P 1'
_cell_length_a   9.45068076
_cell_length_b   9.48171753
_cell_length_c   9.59736698
_cell_angle_alpha   89.28889366
_cell_angle_beta   89.66927010
_cell_angle_gamma   89.17409363
_symmetry_Int_Tables_number   1
_chemical_formula_structural   BeO
_chemical_formula_sum   'Be50 O50'
_cell_volume   859.83840685
_cell_formula_units_Z   50
loop_
 _symmetry_equiv_pos_site_id
 _symmetry_equiv_pos_as_xyz
  1  'x, y, z'
loop_
 _atom_site_type_symbol
 _atom_site_label
 _atom_site_symmetry_multiplicity
 _atom_site_fract_x
 _atom_site_fract_y
 _atom_site_fract_z
 _atom_site_occupancy
  Be  Be0  1  0.38659602  0.96264709  0.01472054  1
  Be  Be1  1  0.02174393  0.20541697  0.40897788  1
  Be  Be2  1  0.32110106  0.63292680  0.17216531  1
  Be  Be3  1  0.73857033  0.72992710  0.11986199  1
  Be  Be4  1  0.25504538  0.52919279  0.68502067  1
  Be  Be5  1  0.47652226  0.47267900  0.72482984  1
  Be  Be6  1  0.74925622  0.54630831  0.64545875  1
  Be  Be7  1  0.34036977  0.56662587  0.43387879  1
  Be  Be8  1  0.30263999  0.11357993  0.81588833  1
  Be  Be9  1  0.61425886  0.99084433  0.20351125  1
  Be  Be10  1  0.61804090  0.59546707  0.30882753  1
  Be  Be11  1  0.86651763  0.10599869  0.24389377  1
  Be  Be12  1  0.11351376  0.68897374  0.34241525  1
  Be  Be13  1  0.12107966  0.72781393  0.56757660  1
  Be  Be14  1  0.53655142  0.76094330  0.03856614  1
  Be  Be15  1  0.08194634  0.88317608  0.81776316  1
  Be  Be16  1  0.51623791  0.00639298  0.51693321  1
  Be  Be17  1  0.03946731  0.65150197  0.07907691  1
  Be  Be18  1  0.75165227  0.31382891  0.60614654  1
  Be  Be19  1  0.98245588  0.48002796  0.73036594  1
  Be  Be20  1  0.64580982  0.11421222  0.76230214  1
  Be  Be21  1  0.55444128  0.20526960  0.39634009  1
  Be  Be22  1  0.90775931  0.55339566  0.25763050  1
  Be  Be23  1  0.78629954  0.08934258  0.52931262  1
  Be  Be24  1  0.64573222  0.37016814  0.85949220  1
  Be  Be25  1  0.47325678  0.95469707  0.73700000  1
  Be  Be26  1  0.77504847  0.68128683  0.84249865  1
  Be  Be27  1  0.23146944  0.97512844  0.58642021  1
  Be  Be28  1  0.58400581  0.47817689  0.06102435  1
  Be  Be29  1  0.31486891  0.12451908  0.34357803  1
  Be  Be30  1  0.02355410  0.46603675  0.50176279  1
  Be  Be31  1  0.02273404  0.18309414  0.87945580  1
  Be  Be32  1  0.22551837  0.17097222  0.07897750  1
  Be  Be33  1  0.02645190  0.32512485  0.14971770  1
  Be  Be34  1  0.90267754  0.84069261  0.25510965  1
  Be  Be35  1  0.24910121  0.66579574  0.91804951  1
  Be  Be36  1  0.38164090  0.34946215  0.25682430  1
  Be  Be37  1  0.12934284  0.24825678  0.64617927  1
  Be  Be38  1  0.20619379  0.82562332  0.07478226  1
  Be  Be39  1  0.23249428  0.36517128  0.83969615  1
  Be  Be40  1  0.87845413  0.47015328  0.98344783  1
  Be  Be41  1  0.65804219  0.82843281  0.40026759  1
  Be  Be42  1  0.65947633  0.23849845  0.06820685  1
  Be  Be43  1  0.79098339  0.34209594  0.33994897  1
  Be  Be44  1  0.69592048  0.85789279  0.66382086  1
  Be  Be45  1  0.39597346  0.25173136  0.58839616  1
  Be  Be46  1  0.45844245  0.30080053  0.96630885  1
  Be  Be47  1  0.04418852  0.02897942  0.05102310  1
  Be  Be48  1  0.41738634  0.74142302  0.52925904  1
  Be  Be49  1  0.04823519  0.96460268  0.39916365  1
  O  O50  1  0.23318166  0.52791759  0.85300434  1
  O  O51  1  0.89885507  0.69804266  0.15918971  1
  O  O52  1  0.12716732  0.85751128  0.66314167  1
  O  O53  1  0.50374955  0.13252585  0.63510785  1
  O  O54  1  0.73810303  0.70295374  0.68375259  1
  O  O55  1  0.59199420  0.62345956  0.14938637  1
  O  O56  1  0.03195616  0.54342046  0.35995909  1
  O  O57  1  0.05525920  0.20518539  0.04168713  1
  O  O58  1  0.75715779  0.49734442  0.31350763  1
  O  O59  1  0.36720898  0.97301774  0.85672511  1
  O  O60  1  0.87174481  0.44565343  0.59457931  1
  O  O61  1  0.41272291  0.28836994  0.42513060  1
  O  O62  1  0.00155421  0.47760224  0.09133252  1
  O  O63  1  0.70458006  0.25155838  0.44558660  1
  O  O64  1  0.40764211  0.89551156  0.59044969  1
  O  O65  1  0.36353909  0.71560990  0.02597356  1
  O  O66  1  0.30436741  0.23614310  0.93425883  1
  O  O67  1  0.68575196  0.94022188  0.51747826  1
  O  O68  1  0.72477989  0.85454583  0.25582156  1
  O  O69  1  0.63121519  0.94717362  0.77630687  1
  O  O70  1  0.19725987  0.03329368  0.42284787  1
  O  O71  1  0.25042068  0.70536672  0.44891633  1
  O  O72  1  0.78393027  0.16642602  0.67782411  1
  O  O73  1  0.16892148  0.70263094  0.18407778  1
  O  O74  1  0.51031092  0.33209946  0.12938205  1
  O  O75  1  0.26300889  0.23413585  0.22149427  1
  O  O76  1  0.50376857  0.46012248  0.90228205  1
  O  O77  1  0.36132856  0.51714159  0.28161182  1
  O  O78  1  0.11236360  0.76395532  0.94391101  1
  O  O79  1  0.02004535  0.01945609  0.88271163  1
  O  O80  1  0.92268117  0.07330705  0.43357887  1
  O  O81  1  0.59841056  0.20988363  0.90267648  1
  O  O82  1  0.71460960  0.12722090  0.17668926  1
  O  O83  1  0.89018536  0.55670160  0.84861754  1
  O  O84  1  0.51595469  0.92027224  0.09573664  1
  O  O85  1  0.09864586  0.56551392  0.62679355  1
  O  O86  1  0.40009620  0.58965690  0.61358702  1
  O  O87  1  0.64067529  0.42303681  0.69232967  1
  O  O88  1  0.33340918  0.36429108  0.69302726  1
  O  O89  1  0.96459651  0.98201014  0.18514664  1
  O  O90  1  0.49505762  0.05491163  0.35307988  1
  O  O91  1  0.93403502  0.27034414  0.27520697  1
  O  O92  1  0.55649327  0.70290297  0.42195853  1
  O  O93  1  0.22980839  0.99043031  0.08304296  1
  O  O94  1  0.22518590  0.11957191  0.67512176  1
  O  O95  1  0.69559569  0.74371022  0.96337640  1
  O  O96  1  0.06470219  0.31782792  0.78584578  1
  O  O97  1  0.08870131  0.30753854  0.50624882  1
  O  O98  1  0.74032894  0.39105441  0.00807312  1
  O  O99  1  0.00469357  0.80887252  0.39478060  1
