# generated using pymatgen
data_Al2O3
_symmetry_space_group_name_H-M   'P 1'
_cell_length_a   10.54966206
_cell_length_b   10.14336876
_cell_length_c   10.24359320
_cell_angle_alpha   92.22476787
_cell_angle_beta   92.20910755
_cell_angle_gamma   90.27215363
_symmetry_Int_Tables_number   1
_chemical_formula_structural   Al2O3
_chemical_formula_sum   'Al40 O60'
_cell_volume   1094.49610073
_cell_formula_units_Z   20
loop_
 _symmetry_equiv_pos_site_id
 _symmetry_equiv_pos_as_xyz
  1  'x, y, z'
loop_
 _atom_site_type_symbol
 _atom_site_label
 _atom_site_symmetry_multiplicity
 _atom_site_fract_x
 _atom_site_fract_y
 _atom_site_fract_z
 _atom_site_occupancy
  Al  Al0  1  0.46456471  0.16103532  0.89762968  1
  Al  Al1  1  0.09926636  0.01557914  0.52613599  1
  Al  Al2  1  0.37072995  0.00842623  0.09596947  1
  Al  Al3  1  0.14176767  0.71651125  0.39967832  1
  Al  Al4  1  0.75307763  0.86076705  0.11682270  1
  Al  Al5  1  0.35046166  0.50942541  0.15138032  1
  Al  Al6  1  0.00237527  0.28078652  0.69524585  1
  Al  Al7  1  0.38694757  0.19033678  0.58844108  1
  Al  Al8  1  0.22127097  0.24313410  0.88825754  1
  Al  Al9  1  0.55388231  0.44628984  0.56190618  1
  Al  Al10  1  0.44927103  0.74492171  0.54456012  1
  Al  Al11  1  0.12524872  0.56206019  0.94023117  1
  Al  Al12  1  0.65130122  0.90987193  0.65527558  1
  Al  Al13  1  0.85532663  0.05468096  0.69988123  1
  Al  Al14  1  0.64543599  0.19509033  0.44699832  1
  Al  Al15  1  0.75840282  0.63316923  0.72690863  1
  Al  Al16  1  0.85951610  0.42145096  0.90526025  1
  Al  Al17  1  0.90235467  0.77599549  0.53943910  1
  Al  Al18  1  0.11971121  0.99399027  0.22161188  1
  Al  Al19  1  0.37547785  0.74466599  0.28199994  1
  Al  Al20  1  0.94512196  0.11204667  0.00901433  1
  Al  Al21  1  0.34952465  0.62102276  0.73405781  1
  Al  Al22  1  0.47230064  0.72681941  0.98666051  1
  Al  Al23  1  0.03239639  0.71645533  0.14622602  1
  Al  Al24  1  0.06141405  0.89484839  0.90291568  1
  Al  Al25  1  0.50305629  0.42231733  0.91684337  1
  Al  Al26  1  0.06065467  0.55093516  0.66715258  1
  Al  Al27  1  0.58256300  0.42584727  0.24099232  1
  Al  Al28  1  0.73096786  0.60539352  0.04765791  1
  Al  Al29  1  0.67675022  0.71139451  0.34462559  1
  Al  Al30  1  0.67495582  0.23199399  0.73356532  1
  Al  Al31  1  0.21693401  0.19645500  0.35901611  1
  Al  Al32  1  0.40989011  0.97272286  0.42085877  1
  Al  Al33  1  0.32530250  0.93647682  0.80169102  1
  Al  Al34  1  0.81831864  0.46679870  0.50026826  1
  Al  Al35  1  0.89332291  0.53332219  0.22795548  1
  Al  Al36  1  0.09188555  0.35457628  0.12171620  1
  Al  Al37  1  0.25769799  0.45918119  0.40173783  1
  Al  Al38  1  0.82592247  0.26547236  0.25576048  1
  Al  Al39  1  0.65802191  0.12003644  0.14870138  1
  O  O40  1  0.86420449  0.72938893  0.09170579  1
  O  O41  1  0.03676233  0.52928433  0.11896094  1
  O  O42  1  0.30002294  0.09173746  0.94502739  1
  O  O43  1  0.94509667  0.23136016  0.14963841  1
  O  O44  1  0.74491033  0.55327007  0.87610048  1
  O  O45  1  0.75205598  0.19972139  0.58206058  1
  O  O46  1  0.38435607  0.67826753  0.11950570  1
  O  O47  1  0.27110256  0.06125812  0.50443569  1
  O  O48  1  0.51710889  0.47270458  0.08095333  1
  O  O49  1  0.99348507  0.11462719  0.62092986  1
  O  O50  1  0.41676163  0.07973161  0.73559982  1
  O  O51  1  0.98404985  0.66371449  0.31449476  1
  O  O52  1  0.87646407  0.40762971  0.34560610  1
  O  O53  1  0.51505154  0.09550647  0.05992602  1
  O  O54  1  0.71423188  0.85876127  0.27889644  1
  O  O55  1  0.16488097  0.27901946  0.73209149  1
  O  O56  1  0.00167256  0.48054392  0.84320087  1
  O  O57  1  0.64346217  0.75207453  0.71273724  1
  O  O58  1  0.41922629  0.91579688  0.24738822  1
  O  O59  1  0.68550485  0.05305226  0.75742156  1
  O  O60  1  0.14208757  0.82462242  0.24369938  1
  O  O61  1  0.15630878  0.57512697  0.51688424  1
  O  O62  1  0.51689096  0.68507120  0.38235148  1
  O  O63  1  0.85497811  0.26826489  0.80582368  1
  O  O64  1  0.82417911  0.45370013  0.07127502  1
  O  O65  1  0.29250545  0.30732458  0.48752640  1
  O  O66  1  0.16182227  0.91929401  0.77599739  1
  O  O67  1  0.08149081  0.24103316  0.97865735  1
  O  O68  1  0.70814088  0.48751934  0.63253914  1
  O  O69  1  0.19716666  0.58417580  0.78048726  1
  O  O70  1  0.53041810  0.90159009  0.53165711  1
  O  O71  1  0.31450180  0.80694892  0.44080016  1
  O  O72  1  0.78890688  0.65330650  0.46838638  1
  O  O73  1  0.25677423  0.60381642  0.29930671  1
  O  O74  1  0.77960553  0.02778310  0.07004993  1
  O  O75  1  0.93081025  0.00637192  0.85533588  1
  O  O76  1  0.37717846  0.31306533  0.88692310  1
  O  O77  1  0.60709206  0.28296449  0.88457792  1
  O  O78  1  0.37617078  0.78824509  0.70272048  1
  O  O79  1  0.70449092  0.57384220  0.23066892  1
  O  O80  1  0.41675336  0.42570341  0.28985909  1
  O  O81  1  0.52177802  0.30036540  0.64353239  1
  O  O82  1  0.08937705  0.73457053  0.97869341  1
  O  O83  1  0.67283552  0.29356856  0.17019109  1
  O  O84  1  0.39203838  0.87541136  0.95841317  1
  O  O85  1  0.73617348  0.12920468  0.31811928  1
  O  O86  1  0.16364815  0.34577181  0.28270881  1
  O  O87  1  0.48856873  0.13253827  0.44426096  1
  O  O88  1  0.63363465  0.75251624  0.02965883  1
  O  O89  1  0.81201686  0.91219090  0.59471125  1
  O  O90  1  0.95998775  0.41625772  0.59415525  1
  O  O91  1  0.07377377  0.08602765  0.36452870  1
  O  O92  1  0.63438834  0.38144139  0.41739010  1
  O  O93  1  0.45581811  0.58622524  0.86729625  1
  O  O94  1  0.43163607  0.56482358  0.58791440  1
  O  O95  1  0.25966534  0.09546120  0.21142594  1
  O  O96  1  0.92552857  0.67232515  0.68025262  1
  O  O97  1  0.04732248  0.98126965  0.06487242  1
  O  O98  1  0.23031466  0.44988126  0.03437608  1
  O  O99  1  0.05344902  0.84409522  0.50264105  1
