# generated using pymatgen
data_MgSi7N10
_symmetry_space_group_name_H-M   'P 1'
_cell_length_a   6.73170555
_cell_length_b   6.88612247
_cell_length_c   9.71682819
_cell_angle_alpha   90.00000000
_cell_angle_beta   105.14950968
_cell_angle_gamma   90.00000000
_symmetry_Int_Tables_number   1
_chemical_formula_structural   MgSi7N10
_chemical_formula_sum   'Mg2 Si14 N20'
_cell_volume   434.77334704
_cell_formula_units_Z   2
loop_
 _symmetry_equiv_pos_site_id
 _symmetry_equiv_pos_as_xyz
  1  'x, y, z'
loop_
 _atom_site_type_symbol
 _atom_site_label
 _atom_site_symmetry_multiplicity
 _atom_site_fract_x
 _atom_site_fract_y
 _atom_site_fract_z
 _atom_site_occupancy
  Mg  Mg0  1  0.99522946  0.93125004  0.69617623  1
  Mg  Mg1  1  0.99522946  0.06874996  0.19617623  1
  Si  Si2  1  0.54109087  0.97901391  0.82323072  1
  Si  Si3  1  0.54109087  0.02098609  0.32323072  1
  Si  Si4  1  0.34889712  0.02219308  0.01829993  1
  Si  Si5  1  0.34889712  0.97780692  0.51829993  1
  Si  Si6  1  0.11014786  0.39820518  0.07230312  1
  Si  Si7  1  0.11014786  0.60179482  0.57230312  1
  Si  Si8  1  0.66159634  0.36087327  0.99202830  1
  Si  Si9  1  0.66159634  0.63912673  0.49202830  1
  Si  Si10  1  0.84317377  0.61753991  0.80861801  1
  Si  Si11  1  0.84317377  0.38246009  0.30861801  1
  Si  Si12  1  0.29815003  0.61892042  0.88216610  1
  Si  Si13  1  0.29815003  0.38107958  0.38216610  1
  Si  Si14  1  0.48366544  0.36781930  0.68594681  1
  Si  Si15  1  0.48366544  0.63218070  0.18594681  1
  N  N16  1  0.74921906  0.84754508  0.81163129  1
  N  N17  1  0.74921906  0.15245492  0.31163129  1
  N  N18  1  0.55774202  0.13274454  0.97060586  1
  N  N19  1  0.55774202  0.86725546  0.47060586  1
  N  N20  1  0.31000557  0.87081425  0.86234385  1
  N  N21  1  0.31000557  0.12918575  0.36234385  1
  N  N22  1  0.15061982  0.15859389  0.03908748  1
  N  N23  1  0.15061982  0.84140611  0.53908748  1
  N  N24  1  0.28887003  0.50655895  0.72233363  1
  N  N25  1  0.28887003  0.49344105  0.22233363  1
  N  N26  1  0.44305724  0.12057744  0.67030038  1
  N  N27  1  0.44305724  0.87942256  0.17030038  1
  N  N28  1  0.88503615  0.37882519  0.13264980  1
  N  N29  1  0.88503615  0.62117481  0.63264980  1
  N  N30  1  0.07634394  0.57040753  0.93483084  1
  N  N31  1  0.07634394  0.42959247  0.43483084  1
  N  N32  1  0.69996911  0.41428017  0.82476235  1
  N  N33  1  0.69996911  0.58571983  0.32476235  1
  N  N34  1  0.49948615  0.54129076  0.02198530  1
  N  N35  1  0.49948615  0.45870924  0.52198530  1
