# generated using pymatgen
data_Na3(Mo9O26)2
_symmetry_space_group_name_H-M   'P 1'
_cell_length_a   7.97281375
_cell_length_b   23.07430185
_cell_length_c   10.29104105
_cell_angle_alpha   41.39594685
_cell_angle_beta   108.96615685
_cell_angle_gamma   115.45457991
_symmetry_Int_Tables_number   1
_chemical_formula_structural   Na3(Mo9O26)2
_chemical_formula_sum   'Na3 Mo18 O52'
_cell_volume   1130.36617929
_cell_formula_units_Z   1
loop_
 _symmetry_equiv_pos_site_id
 _symmetry_equiv_pos_as_xyz
  1  'x, y, z'
loop_
 _atom_site_type_symbol
 _atom_site_label
 _atom_site_symmetry_multiplicity
 _atom_site_fract_x
 _atom_site_fract_y
 _atom_site_fract_z
 _atom_site_occupancy
  Na  Na0  1  0.76332222  0.71551649  0.50626215  1
  Na  Na1  1  0.15420237  0.56076130  0.39060520  1
  Na  Na2  1  0.74082095  0.10880578  0.56956572  1
  Mo  Mo3  1  0.60436533  0.89980317  0.04031534  1
  Mo  Mo4  1  0.45826631  0.69905905  0.76763634  1
  Mo  Mo5  1  0.32517312  0.81968886  0.33806942  1
  Mo  Mo6  1  0.83343292  0.88174412  0.47402324  1
  Mo  Mo7  1  0.08998388  0.95635552  0.09711282  1
  Mo  Mo8  1  0.21611148  0.45753756  0.21467607  1
  Mo  Mo9  1  0.53598798  0.27637074  0.14000785  1
  Mo  Mo10  1  0.81843364  0.51115889  0.86371208  1
  Mo  Mo11  1  0.76051921  0.82058473  0.92739297  1
  Mo  Mo12  1  0.17746657  0.20037496  0.65216836  1
  Mo  Mo13  1  0.69057842  0.62052767  0.35306251  1
  Mo  Mo14  1  0.22792279  0.06708916  0.24221212  1
  Mo  Mo15  1  0.37770520  0.44009829  0.93115006  1
  Mo  Mo16  1  0.88731770  0.17004842  0.01525127  1
  Mo  Mo17  1  0.08712269  0.71124152  0.84134920  1
  Mo  Mo18  1  0.16621117  0.15889131  0.39783053  1
  Mo  Mo19  1  0.50714871  0.09373311  0.85479073  1
  Mo  Mo20  1  0.82711641  0.37415269  0.80085529  1
  O  O21  1  0.98459725  0.00320909  0.40158606  1
  O  O22  1  0.14172641  0.04499964  0.60908091  1
  O  O23  1  0.70595048  0.25555511  0.31242896  1
  O  O24  1  0.04208918  0.82185488  0.66009600  1
  O  O25  1  0.67238123  0.85755229  0.29806411  1
  O  O26  1  0.82035922  0.02137672  0.26784759  1
  O  O27  1  0.88815755  0.97325650  0.94388509  1
  O  O28  1  0.72753181  0.69478271  0.07663184  1
  O  O29  1  0.45233979  0.03477662  0.36413475  1
  O  O30  1  0.96728857  0.64143646  0.79438600  1
  O  O31  1  0.34616268  0.81366985  0.17474675  1
  O  O32  1  0.92099395  0.43963573  0.85996106  1
  O  O33  1  0.11930806  0.47722658  0.33454156  1
  O  O34  1  0.22782452  0.46270312  0.73914917  1
  O  O35  1  0.68984910  0.73492717  0.68833244  1
  O  O36  1  0.97710890  0.46372726  0.09095452  1
  O  O37  1  0.30140796  0.68542847  0.60459361  1
  O  O38  1  0.60189377  0.87245127  0.89613065  1
  O  O39  1  0.91033595  0.30476971  0.81601295  1
  O  O40  1  0.03945998  0.65317250  0.07318216  1
  O  O41  1  0.75089946  0.85670392  0.69726485  1
  O  O42  1  0.46629594  0.83833389  0.49485911  1
  O  O43  1  0.39746878  0.57620626  0.03234301  1
  O  O44  1  0.24135409  0.09020133  0.92438153  1
  O  O45  1  0.45899447  0.56169066  0.40787102  1
  O  O46  1  0.33886438  0.73226713  0.84318171  1
  O  O47  1  0.70156676  0.73613129  0.23067732  1
  O  O48  1  0.08014563  0.82393242  0.32802613  1
  O  O49  1  0.59300008  0.03647246  0.47220125  1
  O  O50  1  0.31903324  0.34699442  0.39983991  1
  O  O51  1  0.61575641  0.28251080  0.96710638  1
  O  O52  1  0.81651049  0.54539535  0.39602827  1
  O  O53  1  0.26929887  0.44739999  0.04349163  1
  O  O54  1  0.38661323  0.30473205  0.59704835  1
  O  O55  1  0.81379620  0.59559444  0.57136358  1
  O  O56  1  0.33808801  0.30543478  0.15877713  1
  O  O57  1  0.22865307  0.41393607  0.46632917  1
  O  O58  1  0.59279334  0.54327557  0.83304883  1
  O  O59  1  0.39422492  0.17410350  0.61401698  1
  O  O60  1  0.57984344  0.41340227  0.90839303  1
  O  O61  1  0.70039482  0.45214753  0.55560552  1
  O  O62  1  0.90234299  0.18236055  0.67326283  1
  O  O63  1  0.04687622  0.19063756  0.46743574  1
  O  O64  1  0.61670524  0.12846089  0.99559745  1
  O  O65  1  0.34557600  0.96024645  0.09164973  1
  O  O66  1  0.79229500  0.16991452  0.78246539  1
  O  O67  1  0.33736609  0.15975175  0.26856025  1
  O  O68  1  0.57193692  0.02087479  0.85380500  1
  O  O69  1  0.97121260  0.17291144  0.21171194  1
  O  O70  1  0.98702671  0.86786686  0.95209910  1
  O  O71  1  0.04629016  0.95948686  0.26368814  1
  O  O72  1  0.09966705  0.16807519  0.98928828  1
