# generated using pymatgen
data_Y2GaN3
_symmetry_space_group_name_H-M   'P 1'
_cell_length_a   5.93702435
_cell_length_b   10.47472507
_cell_length_c   11.42801115
_cell_angle_alpha   89.99999896
_cell_angle_beta   91.84041510
_cell_angle_gamma   151.90315455
_symmetry_Int_Tables_number   1
_chemical_formula_structural   Y2GaN3
_chemical_formula_sum   'Y8 Ga4 N12'
_cell_volume   333.93126668
_cell_formula_units_Z   4
loop_
 _symmetry_equiv_pos_site_id
 _symmetry_equiv_pos_as_xyz
  1  'x, y, z'
loop_
 _atom_site_type_symbol
 _atom_site_label
 _atom_site_symmetry_multiplicity
 _atom_site_fract_x
 _atom_site_fract_y
 _atom_site_fract_z
 _atom_site_occupancy
  Y  Y0  1  0.47618949  0.02831260  0.85161151  1
  Y  Y1  1  0.52381051  0.55212311  0.64838849  1
  Y  Y2  1  0.52381051  0.97168740  0.14838849  1
  Y  Y3  1  0.47618949  0.44787689  0.35161151  1
  Y  Y4  1  0.55854988  0.88730595  0.57269537  1
  Y  Y5  1  0.44145012  0.32875607  0.92730463  1
  Y  Y6  1  0.44145012  0.11269405  0.42730463  1
  Y  Y7  1  0.55854988  0.67124393  0.07269537  1
  Ga  Ga8  1  0.55170299  0.27294816  0.66192518  1
  Ga  Ga9  1  0.44829701  0.72124518  0.83807482  1
  Ga  Ga10  1  0.44829701  0.72705184  0.33807482  1
  Ga  Ga11  1  0.55170299  0.27875482  0.16192518  1
  N  N12  1  -0.00000000  0.61186411  0.75000000  1
  N  N13  1  0.00000000  0.38813589  0.25000000  1
  N  N14  1  0.68658477  0.16104472  0.62490217  1
  N  N15  1  0.31341523  0.47445994  0.87509783  1
  N  N16  1  0.31341523  0.83895528  0.37509783  1
  N  N17  1  0.68658477  0.52554006  0.12490217  1
  N  N18  1  0.40128418  0.09804086  0.02396255  1
  N  N19  1  0.59871582  0.69675668  0.47603745  1
  N  N20  1  0.59871582  0.90195914  0.97603745  1
  N  N21  1  0.40128418  0.30324332  0.52396255  1
  N  N22  1  -0.00000000  0.97374037  0.75000000  1
  N  N23  1  0.00000000  0.02625963  0.25000000  1
