# generated using pymatgen
data_Sr4GeN4
_symmetry_space_group_name_H-M   'P 1'
_cell_length_a   6.88677427
_cell_length_b   6.76663790
_cell_length_c   8.57643732
_cell_angle_alpha   74.15569316
_cell_angle_beta   82.30194226
_cell_angle_gamma   60.70788377
_symmetry_Int_Tables_number   1
_chemical_formula_structural   Sr4GeN4
_chemical_formula_sum   'Sr8 Ge2 N8'
_cell_volume   335.31924147
_cell_formula_units_Z   2
loop_
 _symmetry_equiv_pos_site_id
 _symmetry_equiv_pos_as_xyz
  1  'x, y, z'
loop_
 _atom_site_type_symbol
 _atom_site_label
 _atom_site_symmetry_multiplicity
 _atom_site_fract_x
 _atom_site_fract_y
 _atom_site_fract_z
 _atom_site_occupancy
  Sr  Sr0  1  0.79470382  0.61745979  0.13323160  1
  Sr  Sr1  1  0.20529618  0.38254021  0.86676840  1
  Sr  Sr2  1  0.72592205  0.23734575  0.94381715  1
  Sr  Sr3  1  0.27407795  0.76265425  0.05618285  1
  Sr  Sr4  1  0.72654436  0.53571707  0.55658479  1
  Sr  Sr5  1  0.27345564  0.46428293  0.44341521  1
  Sr  Sr6  1  0.20700114  0.91227038  0.63292002  1
  Sr  Sr7  1  0.79299886  0.08772962  0.36707998  1
  Ge  Ge8  1  0.74795045  0.87580310  0.74994394  1
  Ge  Ge9  1  0.25204955  0.12419690  0.25005606  1
  N  N10  1  0.96026971  0.72319302  0.59159611  1
  N  N11  1  0.03973029  0.27680698  0.40840389  1
  N  N12  1  0.96011566  0.81767887  0.90777273  1
  N  N13  1  0.03988434  0.18232113  0.09222727  1
  N  N14  1  0.58028104  0.71122830  0.83998987  1
  N  N15  1  0.41971896  0.28877170  0.16001013  1
  N  N16  1  0.42291211  0.79276925  0.33963794  1
  N  N17  1  0.57708789  0.20723075  0.66036206  1
