# generated using pymatgen
data_Al2O3
_symmetry_space_group_name_H-M   'P 1'
_cell_length_a   10.57881220
_cell_length_b   10.50506360
_cell_length_c   10.18303864
_cell_angle_alpha   89.57302483
_cell_angle_beta   95.25196176
_cell_angle_gamma   88.96078836
_symmetry_Int_Tables_number   1
_chemical_formula_structural   Al2O3
_chemical_formula_sum   'Al40 O60'
_cell_volume   1126.66878056
_cell_formula_units_Z   20
loop_
 _symmetry_equiv_pos_site_id
 _symmetry_equiv_pos_as_xyz
  1  'x, y, z'
loop_
 _atom_site_type_symbol
 _atom_site_label
 _atom_site_symmetry_multiplicity
 _atom_site_fract_x
 _atom_site_fract_y
 _atom_site_fract_z
 _atom_site_occupancy
  Al  Al0  1  0.57361086  0.52109402  0.76919284  1
  Al  Al1  1  0.72351274  0.66182072  0.55114471  1
  Al  Al2  1  0.31866332  0.02252077  0.57910954  1
  Al  Al3  1  0.53493375  0.56572639  0.03486173  1
  Al  Al4  1  0.82432458  0.45278280  0.33200449  1
  Al  Al5  1  0.15769618  0.74565086  0.52831229  1
  Al  Al6  1  0.39309289  0.34922406  0.51336614  1
  Al  Al7  1  0.97531042  0.22108080  0.31312979  1
  Al  Al8  1  0.30781823  0.42094536  0.21072656  1
  Al  Al9  1  0.86939085  0.44299072  0.78617399  1
  Al  Al10  1  0.41631439  0.63581247  0.34564082  1
  Al  Al11  1  0.22191246  0.56271579  0.98558657  1
  Al  Al12  1  0.56368719  0.36604124  0.29230201  1
  Al  Al13  1  0.91084789  0.89537944  0.70432616  1
  Al  Al14  1  0.67321377  0.78375907  0.85177153  1
  Al  Al15  1  0.12029103  0.77130156  0.79403832  1
  Al  Al16  1  0.53144242  0.10134004  0.32213204  1
  Al  Al17  1  0.19365017  0.49836084  0.69442077  1
  Al  Al18  1  0.38200856  0.73281910  0.83221093  1
  Al  Al19  1  0.63458115  0.97050291  0.60296745  1
  Al  Al20  1  0.73059922  0.15988849  0.81115333  1
  Al  Al21  1  0.99151038  0.42547685  0.10329140  1
  Al  Al22  1  0.97895472  0.48124254  0.53138336  1
  Al  Al23  1  0.00286496  0.81214817  0.24000399  1
  Al  Al24  1  0.28918515  0.88126719  0.33895417  1
  Al  Al25  1  0.68446588  0.36722451  0.59214221  1
  Al  Al26  1  0.83335835  0.00582849  0.97898544  1
  Al  Al27  1  0.75194434  0.23355429  0.15343582  1
  Al  Al28  1  0.47107011  0.02408927  0.85420986  1
  Al  Al29  1  0.48114724  0.75358766  0.57304296  1
  Al  Al30  1  0.77084701  0.99036954  0.37884204  1
  Al  Al31  1  0.50613617  0.86416529  0.15331155  1
  Al  Al32  1  0.74957470  0.80574463  0.15879802  1
  Al  Al33  1  0.38004166  0.35024407  0.82652370  1
  Al  Al34  1  0.36573997  0.14335248  0.05622526  1
  Al  Al35  1  0.20303979  0.99300740  0.86419560  1
  Al  Al36  1  0.11068131  0.03941539  0.14290360  1
  Al  Al37  1  0.28032879  0.19689713  0.33727622  1
  Al  Al38  1  0.92501897  0.66886867  0.95688343  1
  Al  Al39  1  0.13657477  0.54547382  0.33684576  1
  O  O40  1  0.11813020  0.14037837  0.28526398  1
  O  O41  1  0.22642838  0.37182666  0.35563893  1
  O  O42  1  0.00642814  0.45900344  0.70293340  1
  O  O43  1  0.66078871  0.79089160  0.66054673  1
  O  O44  1  0.69645647  0.38105786  0.42643147  1
  O  O45  1  0.83482837  0.02570744  0.80434360  1
  O  O46  1  0.94551746  0.34281043  0.43323525  1
  O  O47  1  0.30070595  0.17626932  0.51547851  1
  O  O48  1  0.59255932  0.20751539  0.20152609  1
  O  O49  1  0.13157006  0.54040337  0.51985172  1
  O  O50  1  0.41541839  0.19887223  0.90363203  1
  O  O51  1  0.05624430  0.93930890  0.80029602  1
  O  O52  1  0.81054435  0.93867493  0.55736473  1
  O  O53  1  0.90345320  0.49301784  0.95134721  1
  O  O54  1  0.23115513  0.66896741  0.71325501  1
  O  O55  1  0.59462699  0.07599631  0.74558441  1
  O  O56  1  0.64014080  0.07090009  0.46185193  1
  O  O57  1  0.32154477  0.25416134  0.16914384  1
  O  O58  1  0.78793064  0.29733575  0.73275506  1
  O  O59  1  0.20953040  0.91651199  0.49462889  1
  O  O60  1  0.83394583  0.13083848  0.30151678  1
  O  O61  1  0.96142727  0.98712249  0.08952125  1
  O  O62  1  0.08851898  0.66628624  0.92933869  1
  O  O63  1  0.85343791  0.76441509  0.82531228  1
  O  O64  1  0.53795010  0.37351719  0.65200280  1
  O  O65  1  0.62929927  0.94604454  0.25091598  1
  O  O66  1  0.57825698  0.68352104  0.45233435  1
  O  O67  1  0.73215642  0.52544780  0.68020379  1
  O  O68  1  0.08249392  0.71298674  0.36429239  1
  O  O69  1  0.36705267  0.03689296  0.30161183  1
  O  O70  1  0.72266183  0.88520737  0.99863341  1
  O  O71  1  0.26886659  0.58775790  0.24562932  1
  O  O72  1  0.45000163  0.47645733  0.40570787  1
  O  O73  1  0.02285790  0.77312479  0.63431546  1
  O  O74  1  0.84459118  0.57894971  0.46603434  1
  O  O75  1  0.93089822  0.27777531  0.14503545  1
  O  O76  1  0.90142311  0.72394719  0.11475614  1
  O  O77  1  0.33100110  0.71881050  0.47329388  1
  O  O78  1  0.15524980  0.44671236  0.08861446  1
  O  O79  1  0.60351242  0.71561467  0.13489096  1
  O  O80  1  0.40467212  0.79197326  0.25653515  1
  O  O81  1  0.51255080  0.43633323  0.89944180  1
  O  O82  1  0.24106843  0.44577074  0.86276046  1
  O  O83  1  0.74857887  0.16065315  0.98771566  1
  O  O84  1  0.31558284  0.03376715  0.75251965  1
  O  O85  1  0.26071674  0.83654164  0.88406598  1
  O  O86  1  0.37728591  0.63582413  0.97912618  1
  O  O87  1  0.85341359  0.86167376  0.29944591  1
  O  O88  1  0.47202739  0.46638074  0.16311027  1
  O  O89  1  0.72370654  0.40687503  0.19138736  1
  O  O90  1  0.20357261  0.08194111  0.01138548  1
  O  O91  1  0.46486841  0.92554301  0.56800240  1
  O  O92  1  0.46666609  0.64380900  0.70671298  1
  O  O93  1  0.50885326  0.85117965  0.84264701  1
  O  O94  1  0.30951005  0.38375518  0.65669052  1
  O  O95  1  0.97656781  0.50539244  0.25548862  1
  O  O96  1  0.45203635  0.99437488  0.03694646  1
  O  O97  1  0.64780582  0.62253703  0.90595338  1
  O  O98  1  0.46732779  0.25192291  0.38754470  1
  O  O99  1  0.15253808  0.89019676  0.21831437  1
