# generated using pymatgen
data_Ga2O3
_symmetry_space_group_name_H-M   'P 1'
_cell_length_a   10.28086440
_cell_length_b   9.78721645
_cell_length_c   10.44392223
_cell_angle_alpha   90.83470472
_cell_angle_beta   87.69922362
_cell_angle_gamma   89.18860544
_symmetry_Int_Tables_number   1
_chemical_formula_structural   Ga2O3
_chemical_formula_sum   'Ga32 O48'
_cell_volume   1049.80541818
_cell_formula_units_Z   16
loop_
 _symmetry_equiv_pos_site_id
 _symmetry_equiv_pos_as_xyz
  1  'x, y, z'
loop_
 _atom_site_type_symbol
 _atom_site_label
 _atom_site_symmetry_multiplicity
 _atom_site_fract_x
 _atom_site_fract_y
 _atom_site_fract_z
 _atom_site_occupancy
  Ga  Ga0  1  0.24973469  0.77328074  0.07201949  1
  Ga  Ga1  1  0.80418548  0.29861813  0.78501477  1
  Ga  Ga2  1  0.45346259  0.86842358  0.26060363  1
  Ga  Ga3  1  0.19296850  0.16960728  0.92653637  1
  Ga  Ga4  1  0.29216882  0.61909144  0.74353930  1
  Ga  Ga5  1  0.08404481  0.37120753  0.60714852  1
  Ga  Ga6  1  0.75941611  0.57593981  0.89142332  1
  Ga  Ga7  1  0.96356918  0.77776369  0.25883491  1
  Ga  Ga8  1  0.97761294  0.02893790  0.73119804  1
  Ga  Ga9  1  0.69588843  0.01972094  0.22690111  1
  Ga  Ga10  1  0.63256457  0.06780274  0.69967664  1
  Ga  Ga11  1  0.24664280  0.08653320  0.18417766  1
  Ga  Ga12  1  0.89344242  0.44169042  0.34058705  1
  Ga  Ga13  1  0.66032293  0.46176508  0.57838987  1
  Ga  Ga14  1  0.62968066  0.27816480  0.36536737  1
  Ga  Ga15  1  0.12525079  0.92018220  0.44140868  1
  Ga  Ga16  1  0.28361310  0.10303526  0.66090557  1
  Ga  Ga17  1  0.59345076  0.35924018  0.06113386  1
  Ga  Ga18  1  0.27920597  0.47176081  0.99423346  1
  Ga  Ga19  1  0.02154671  0.73493193  0.92797052  1
  Ga  Ga20  1  0.48692567  0.01046906  0.97819725  1
  Ga  Ga21  1  0.47630237  0.31067312  0.82001810  1
  Ga  Ga22  1  0.16641914  0.57634455  0.44498605  1
  Ga  Ga23  1  0.43499216  0.86630422  0.56878625  1
  Ga  Ga24  1  0.96167805  0.40157475  0.02329573  1
  Ga  Ga25  1  0.56071385  0.71617819  0.03326441  1
  Ga  Ga26  1  0.94530285  0.12908407  0.18769435  1
  Ga  Ga27  1  0.34384117  0.30651828  0.43252458  1
  Ga  Ga28  1  0.78112931  0.94520807  0.92517931  1
  Ga  Ga29  1  0.67581125  0.70772657  0.36536952  1
  Ga  Ga30  1  0.42021586  0.51372577  0.22546962  1
  Ga  Ga31  1  0.84355470  0.00205264  0.45237568  1
  O  O32  1  0.19352125  0.67879122  0.89360712  1
  O  O33  1  0.17150789  0.54610487  0.62637819  1
  O  O34  1  0.60318678  0.40662342  0.23309397  1
  O  O35  1  0.75872379  0.48957570  0.73018001  1
  O  O36  1  0.41041077  0.72498413  0.67139836  1
  O  O37  1  0.56663337  0.93153384  0.12775750  1
  O  O38  1  0.50907386  0.34221646  0.49583337  1
  O  O39  1  0.61201509  0.96621838  0.85349751  1
  O  O40  1  0.93274535  0.57278357  0.94606306  1
  O  O41  1  0.93768902  0.86926224  0.84091967  1
  O  O42  1  0.71587434  0.97765738  0.57020492  1
  O  O43  1  0.09581872  0.11421269  0.08743449  1
  O  O44  1  0.82029154  0.09841220  0.80079172  1
  O  O45  1  0.78043831  0.86390239  0.31770895  1
  O  O46  1  0.72626991  0.75673350  0.96406663  1
  O  O47  1  0.76692241  0.36716199  0.45173369  1
  O  O48  1  0.09630176  0.73605465  0.38954207  1
  O  O49  1  0.14366497  0.05673803  0.78577300  1
  O  O50  1  0.22774310  0.25629835  0.56608594  1
  O  O51  1  0.32676055  0.21770291  0.80196810  1
  O  O52  1  0.31989685  0.49408625  0.37872478  1
  O  O53  1  0.28193200  0.89645980  0.22476175  1
  O  O54  1  0.01692734  0.96906370  0.30682853  1
  O  O55  1  0.98864422  0.98114015  0.55807433  1
  O  O56  1  0.05901598  0.78632449  0.09748716  1
  O  O57  1  0.60082802  0.53187730  0.97618011  1
  O  O58  1  0.81643472  0.03510764  0.08565706  1
  O  O59  1  0.94068656  0.33774623  0.19111383  1
  O  O60  1  0.41156577  0.80948379  0.98398884  1
  O  O61  1  0.55819062  0.21463258  0.95420188  1
  O  O62  1  0.32433696  0.07663135  0.01968843  1
  O  O63  1  0.96971342  0.27833046  0.70360615  1
  O  O64  1  0.40047196  0.38049210  0.09493509  1
  O  O65  1  0.27304816  0.59912759  0.13320650  1
  O  O66  1  0.03988834  0.43934765  0.44237197  1
  O  O67  1  0.52196334  0.84049771  0.41299340  1
  O  O68  1  0.45854445  0.03400365  0.65095745  1
  O  O69  1  0.26751909  0.95278069  0.53113790  1
  O  O70  1  0.80148785  0.34819909  0.96096211  1
  O  O71  1  0.37960984  0.48115551  0.83646236  1
  O  O72  1  0.13378430  0.35881858  0.96334310  1
  O  O73  1  0.85240747  0.61981435  0.28874083  1
  O  O74  1  0.62833003  0.26933464  0.71078039  1
  O  O75  1  0.64428434  0.63108296  0.51673651  1
  O  O76  1  0.56349145  0.11761578  0.30950622  1
  O  O77  1  0.27348798  0.19808881  0.31280729  1
  O  O78  1  0.52863605  0.67887258  0.21663283  1
  O  O79  1  0.81994747  0.13763173  0.32694190  1
