# generated using pymatgen
data_Al2O3
_symmetry_space_group_name_H-M   'P 1'
_cell_length_a   10.23321526
_cell_length_b   10.16520457
_cell_length_c   10.49788306
_cell_angle_alpha   90.85494190
_cell_angle_beta   92.22224708
_cell_angle_gamma   87.56566681
_symmetry_Int_Tables_number   1
_chemical_formula_structural   Al2O3
_chemical_formula_sum   'Al40 O60'
_cell_volume   1090.11603735
_cell_formula_units_Z   20
loop_
 _symmetry_equiv_pos_site_id
 _symmetry_equiv_pos_as_xyz
  1  'x, y, z'
loop_
 _atom_site_type_symbol
 _atom_site_label
 _atom_site_symmetry_multiplicity
 _atom_site_fract_x
 _atom_site_fract_y
 _atom_site_fract_z
 _atom_site_occupancy
  Al  Al0  1  0.96028892  0.33958289  0.62646722  1
  Al  Al1  1  0.56451183  0.53619959  0.39695236  1
  Al  Al2  1  0.21145116  0.21871336  0.20821346  1
  Al  Al3  1  0.32196959  0.55299885  0.94440687  1
  Al  Al4  1  0.47592032  0.64049802  0.65658109  1
  Al  Al5  1  0.06938206  0.49059167  0.16752706  1
  Al  Al6  1  0.18589028  0.99946813  0.89853938  1
  Al  Al7  1  0.28092816  0.67336002  0.30590690  1
  Al  Al8  1  0.96451879  0.93299358  0.77220994  1
  Al  Al9  1  0.80850346  0.71547491  0.29887570  1
  Al  Al10  1  0.08777105  0.51534358  0.82043708  1
  Al  Al11  1  0.44613741  0.94665428  0.62472361  1
  Al  Al12  1  0.09674849  0.74487784  0.05048891  1
  Al  Al13  1  0.23073461  0.48949419  0.55376904  1
  Al  Al14  1  0.78612513  0.00958547  0.21604552  1
  Al  Al15  1  0.67589477  0.26805377  0.70937757  1
  Al  Al16  1  0.28578210  0.77833971  0.80816607  1
  Al  Al17  1  0.47567574  0.99110644  0.99634517  1
  Al  Al18  1  0.44199738  0.32625132  0.51843226  1
  Al  Al19  1  0.69473661  0.23803356  0.97526721  1
  Al  Al20  1  0.44558073  0.42926429  0.17647025  1
  Al  Al21  1  0.05247652  0.89701230  0.37601749  1
  Al  Al22  1  0.19518485  0.13854495  0.50080243  1
  Al  Al23  1  0.54012972  0.80990159  0.39725035  1
  Al  Al24  1  0.87023766  0.52299503  0.98548024  1
  Al  Al25  1  0.01858534  0.63687251  0.52009797  1
  Al  Al26  1  0.76369240  0.83069048  0.57224963  1
  Al  Al27  1  0.38709462  0.16478827  0.75273648  1
  Al  Al28  1  0.98687273  0.07130454  0.02757683  1
  Al  Al29  1  0.66595448  0.23450740  0.40227764  1
  Al  Al30  1  0.91013697  0.07536740  0.50309531  1
  Al  Al31  1  0.50644538  0.17121279  0.20658906  1
  Al  Al32  1  0.14202030  0.28385299  0.91432367  1
  Al  Al33  1  0.33738725  0.94879598  0.29875415  1
  Al  Al34  1  0.66792112  0.97052148  0.81623049  1
  Al  Al35  1  0.79081809  0.55811896  0.70190233  1
  Al  Al36  1  0.97152924  0.36147018  0.36902004  1
  Al  Al37  1  0.58100972  0.53992716  0.89822557  1
  Al  Al38  1  0.77071666  0.78688437  0.00167974  1
  Al  Al39  1  0.75645338  0.42444232  0.21407487  1
  O  O40  1  0.04231568  0.44041329  0.00459669  1
  O  O41  1  0.55705845  0.15246762  0.03407485  1
  O  O42  1  0.41166078  0.02082803  0.16325823  1
  O  O43  1  0.71247871  0.82724984  0.40689264  1
  O  O44  1  0.83192200  0.87151768  0.85755490  1
  O  O45  1  0.09055588  0.99529425  0.51002177  1
  O  O46  1  0.62647917  0.36898609  0.86347486  1
  O  O47  1  0.10982908  0.35113240  0.26866127  1
  O  O48  1  0.19359190  0.84380639  0.29776306  1
  O  O49  1  0.62807499  0.89530758  0.65706116  1
  O  O50  1  0.25638302  0.31412774  0.52137035  1
  O  O51  1  0.26267874  0.15658769  0.86728750  1
  O  O52  1  0.63021961  0.60009880  0.73877013  1
  O  O53  1  0.01465194  0.07934476  0.86070851  1
  O  O54  1  0.75386239  0.16358359  0.54192744  1
  O  O55  1  0.08719189  0.92004440  0.04067815  1
  O  O56  1  0.35281085  0.28913017  0.15810658  1
  O  O57  1  0.18356027  0.66876486  0.91573149  1
  O  O58  1  0.91571581  0.01083319  0.33566813  1
  O  O59  1  0.50207128  0.25390115  0.66760484  1
  O  O60  1  0.31509896  0.07877624  0.62083196  1
  O  O61  1  0.05521433  0.33767597  0.76657874  1
  O  O62  1  0.39713421  0.49748634  0.59446260  1
  O  O63  1  0.79962667  0.38410270  0.66916535  1
  O  O64  1  0.18479274  0.61171415  0.43625778  1
  O  O65  1  0.62078152  0.89032075  0.96404577  1
  O  O66  1  0.18350703  0.62078767  0.16063717  1
  O  O67  1  0.01116786  0.22373374  0.50451303  1
  O  O68  1  0.96221634  0.74770299  0.39093887  1
  O  O69  1  0.11575829  0.18411958  0.06345161  1
  O  O70  1  0.12918331  0.58429834  0.66724030  1
  O  O71  1  0.83038486  0.09742478  0.07856215  1
  O  O72  1  0.44377752  0.94404623  0.45113560  1
  O  O73  1  0.40613137  0.52689714  0.31129024  1
  O  O74  1  0.60600335  0.39425194  0.48213140  1
  O  O75  1  0.98811094  0.46385789  0.50675188  1
  O  O76  1  0.93807232  0.68538853  0.04488991  1
  O  O77  1  0.91847959  0.51600514  0.24538841  1
  O  O78  1  0.71183577  0.62013295  0.98407551  1
  O  O79  1  0.13313968  0.87660646  0.77727218  1
  O  O80  1  0.69128217  0.58269498  0.29311686  1
  O  O81  1  0.79546509  0.37488986  0.05250661  1
  O  O82  1  0.88477632  0.94513422  0.61899589  1
  O  O83  1  0.48028101  0.21723713  0.38544973  1
  O  O84  1  0.24518462  0.41976065  0.88079061  1
  O  O85  1  0.48937146  0.02801977  0.80013251  1
  O  O86  1  0.23001876  0.10246909  0.33137528  1
  O  O87  1  0.78294505  0.83630752  0.17177222  1
  O  O88  1  0.81571221  0.30636258  0.33184240  1
  O  O89  1  0.59717820  0.35042131  0.21173816  1
  O  O90  1  0.42216890  0.77649059  0.27518731  1
  O  O91  1  0.85324231  0.67540727  0.59737771  1
  O  O92  1  0.46231216  0.51947446  0.03791320  1
  O  O93  1  0.72752573  0.14003326  0.82418596  1
  O  O94  1  0.33170993  0.89802757  0.93476046  1
  O  O95  1  0.54399879  0.67359540  0.50119965  1
  O  O96  1  0.37535419  0.79465290  0.66547462  1
  O  O97  1  0.91360158  0.55851457  0.82429516  1
  O  O98  1  0.65717048  0.09696952  0.28132579  1
  O  O99  1  0.41540392  0.63006613  0.83113993  1
