# generated using pymatgen
data_Ca3In3N5
_symmetry_space_group_name_H-M   'P 1'
_cell_length_a   6.52384698
_cell_length_b   7.21377407
_cell_length_c   8.90040661
_cell_angle_alpha   104.74253565
_cell_angle_beta   111.15390319
_cell_angle_gamma   93.79000752
_symmetry_Int_Tables_number   1
_chemical_formula_structural   Ca3In3N5
_chemical_formula_sum   'Ca6 In6 N10'
_cell_volume   371.94401048
_cell_formula_units_Z   2
loop_
 _symmetry_equiv_pos_site_id
 _symmetry_equiv_pos_as_xyz
  1  'x, y, z'
loop_
 _atom_site_type_symbol
 _atom_site_label
 _atom_site_symmetry_multiplicity
 _atom_site_fract_x
 _atom_site_fract_y
 _atom_site_fract_z
 _atom_site_occupancy
  Ca  Ca0  1  0.81799165  0.42687270  0.59284183  1
  Ca  Ca1  1  0.18200835  0.57312730  0.40715817  1
  Ca  Ca2  1  0.68462604  0.86164460  0.89409712  1
  Ca  Ca3  1  0.31537396  0.13835540  0.10590288  1
  Ca  Ca4  1  0.60978707  0.60354959  0.19646093  1
  Ca  Ca5  1  0.39021293  0.39645041  0.80353907  1
  In  In6  1  0.89051081  0.30570523  0.96374947  1
  In  In7  1  0.10948919  0.69429477  0.03625053  1
  In  In8  1  0.72506796  0.94039670  0.56219016  1
  In  In9  1  0.27493204  0.05960330  0.43780984  1
  In  In10  1  0.17220297  0.84871283  0.72615980  1
  In  In11  1  0.82779703  0.15128717  0.27384020  1
  N  N12  1  0.97799047  0.05087697  0.82160728  1
  N  N13  1  0.02200953  0.94912303  0.17839272  1
  N  N14  1  0.87244993  0.68846048  0.48363684  1
  N  N15  1  0.12755007  0.31153952  0.51636316  1
  N  N16  1  0.76493276  0.53319763  0.84728507  1
  N  N17  1  0.23506724  0.46680237  0.15271493  1
  N  N18  1  0.41041454  0.88350430  0.60618336  1
  N  N19  1  0.58958546  0.11649570  0.39381664  1
  N  N20  1  0.35943098  0.73818590  0.93473726  1
  N  N21  1  0.64056902  0.26181410  0.06526274  1
