# generated using pymatgen
data_FeO
_symmetry_space_group_name_H-M   'P 1'
_cell_length_a   10.65905178
_cell_length_b   10.45738094
_cell_length_c   9.94488474
_cell_angle_alpha   93.70694366
_cell_angle_beta   87.57439835
_cell_angle_gamma   98.78090987
_symmetry_Int_Tables_number   1
_chemical_formula_structural   FeO
_chemical_formula_sum   'Fe40 O40'
_cell_volume   1092.63752089
_cell_formula_units_Z   40
loop_
 _symmetry_equiv_pos_site_id
 _symmetry_equiv_pos_as_xyz
  1  'x, y, z'
loop_
 _atom_site_type_symbol
 _atom_site_label
 _atom_site_symmetry_multiplicity
 _atom_site_fract_x
 _atom_site_fract_y
 _atom_site_fract_z
 _atom_site_occupancy
  Fe  Fe0  1  0.11498183  0.85573518  0.10637603  1
  Fe  Fe1  1  0.23832043  0.64573213  0.83440147  1
  Fe  Fe2  1  0.99791169  0.05763489  0.84262798  1
  Fe  Fe3  1  0.84001253  0.98093295  0.15054503  1
  Fe  Fe4  1  0.05996165  0.98369875  0.42788711  1
  Fe  Fe5  1  0.13686629  0.85429787  0.66849526  1
  Fe  Fe6  1  0.89498493  0.56650619  0.07016623  1
  Fe  Fe7  1  0.84553675  0.75434475  0.30804562  1
  Fe  Fe8  1  0.31621593  0.46835339  0.11715629  1
  Fe  Fe9  1  0.40327437  0.41631455  0.78899784  1
  Fe  Fe10  1  0.57007925  0.44835250  0.27807259  1
  Fe  Fe11  1  0.67780894  0.30414794  0.59362294  1
  Fe  Fe12  1  0.47522930  0.78978292  0.69966994  1
  Fe  Fe13  1  0.56472620  0.93818050  0.28779000  1
  Fe  Fe14  1  0.17304899  0.18352375  0.64178768  1
  Fe  Fe15  1  0.88198821  0.26962026  0.05115348  1
  Fe  Fe16  1  0.88761923  0.38419258  0.77498617  1
  Fe  Fe17  1  0.28245695  0.95105232  0.91988800  1
  Fe  Fe18  1  0.87339079  0.19761213  0.42302261  1
  Fe  Fe19  1  0.14031950  0.67041843  0.33063385  1
  Fe  Fe20  1  0.57602453  0.96379737  0.98997385  1
  Fe  Fe21  1  0.45787647  0.69279711  0.35641988  1
  Fe  Fe22  1  0.72917073  0.09647513  0.77307603  1
  Fe  Fe23  1  0.12469222  0.33532889  0.89845105  1
  Fe  Fe24  1  0.34734329  0.50692677  0.53679547  1
  Fe  Fe25  1  0.71545655  0.81288845  0.83814242  1
  Fe  Fe26  1  0.68544418  0.58032689  0.55906795  1
  Fe  Fe27  1  0.31729654  0.91118572  0.44576362  1
  Fe  Fe28  1  0.39862540  0.76776210  0.09202843  1
  Fe  Fe29  1  0.60152529  0.30879294  0.97205817  1
  Fe  Fe30  1  0.95742628  0.73763150  0.86480434  1
  Fe  Fe31  1  0.64971191  0.18930938  0.26461058  1
  Fe  Fe32  1  0.67697019  0.92027786  0.53834654  1
  Fe  Fe33  1  0.99769813  0.54090656  0.57486910  1
  Fe  Fe34  1  0.61916861  0.60744094  0.02807016  1
  Fe  Fe35  1  0.83550855  0.48192777  0.34147737  1
  Fe  Fe36  1  0.13448020  0.35648037  0.39618380  1
  Fe  Fe37  1  0.12110155  0.15484985  0.17633718  1
  Fe  Fe38  1  0.41628219  0.10571581  0.15576480  1
  Fe  Fe39  1  0.41824618  0.20840840  0.50680934  1
  O  O40  1  0.38863897  0.58554360  0.71831568  1
  O  O41  1  0.53613609  0.45908400  0.91913122  1
  O  O42  1  0.06412253  0.66059860  0.72929250  1
  O  O43  1  0.96340733  0.62212912  0.25710952  1
  O  O44  1  0.24521716  0.03855289  0.09765844  1
  O  O45  1  0.27742884  0.06402415  0.55503182  1
  O  O46  1  0.04089097  0.01734049  0.65119282  1
  O  O47  1  0.79353918  0.66502648  0.93703155  1
  O  O48  1  0.52414392  0.55262616  0.44647371  1
  O  O49  1  0.52634654  0.28296655  0.15227766  1
  O  O50  1  0.68974493  0.35079904  0.39497012  1
  O  O51  1  0.77837968  0.97304992  0.96255530  1
  O  O52  1  0.26255311  0.31696394  0.51709922  1
  O  O53  1  0.54938451  0.75490918  0.96621703  1
  O  O54  1  0.66902824  0.75969043  0.64902532  1
  O  O55  1  0.19532374  0.35022028  0.21424843  1
  O  O56  1  0.95968216  0.38706041  0.43766338  1
  O  O57  1  0.29996669  0.83079910  0.76620468  1
  O  O58  1  0.02950682  0.27315303  0.73522817  1
  O  O59  1  0.74720887  0.12234290  0.57012645  1
  O  O60  1  0.98549017  0.91190917  0.23698300  1
  O  O61  1  0.05933367  0.16309610  0.37688495  1
  O  O62  1  0.75665883  0.25698202  0.89297626  1
  O  O63  1  0.57850683  0.96795215  0.78732378  1
  O  O64  1  0.25568706  0.48691733  0.93584005  1
  O  O65  1  0.48813974  0.85006286  0.48342237  1
  O  O66  1  0.31663852  0.77563338  0.27631140  1
  O  O67  1  0.50490569  0.32817896  0.65288228  1
  O  O68  1  0.48446740  0.09627870  0.35250185  1
  O  O69  1  0.73057879  0.88664123  0.32503360  1
  O  O70  1  0.04278792  0.18707065  0.00042594  1
  O  O71  1  0.17919030  0.54257608  0.46527359  1
  O  O72  1  0.97385799  0.43141930  0.96204240  1
  O  O73  1  0.80393529  0.48157539  0.65043644  1
  O  O74  1  0.26787287  0.26012205  0.80260270  1
  O  O75  1  0.06615123  0.90101760  0.91013995  1
  O  O76  1  0.46695042  0.59055235  0.17150237  1
  O  O77  1  0.71972956  0.55348206  0.16946688  1
  O  O78  1  0.82811700  0.17574735  0.21584841  1
  O  O79  1  0.12673572  0.82573721  0.46430054  1
