# generated using pymatgen
data_Mg5(GeN3)2
_symmetry_space_group_name_H-M   'P 1'
_cell_length_a   5.52460594
_cell_length_b   5.41826727
_cell_length_c   13.20972572
_cell_angle_alpha   90.00000021
_cell_angle_beta   91.30683636
_cell_angle_gamma   119.36528835
_symmetry_Int_Tables_number   1
_chemical_formula_structural   Mg5(GeN3)2
_chemical_formula_sum   'Mg10 Ge4 N12'
_cell_volume   344.49242337
_cell_formula_units_Z   2
loop_
 _symmetry_equiv_pos_site_id
 _symmetry_equiv_pos_as_xyz
  1  'x, y, z'
loop_
 _atom_site_type_symbol
 _atom_site_label
 _atom_site_symmetry_multiplicity
 _atom_site_fract_x
 _atom_site_fract_y
 _atom_site_fract_z
 _atom_site_occupancy
  Mg  Mg0  1  0.24380210  0.84842362  0.05913710  1
  Mg  Mg1  1  0.75619790  0.60462252  0.44086290  1
  Mg  Mg2  1  0.75619790  0.15157638  0.94086290  1
  Mg  Mg3  1  0.24380210  0.39537748  0.55913710  1
  Mg  Mg4  1  0.28661509  0.07264365  0.72941872  1
  Mg  Mg5  1  0.71338491  0.78602857  0.77058128  1
  Mg  Mg6  1  0.71338491  0.92735635  0.27058128  1
  Mg  Mg7  1  0.28661509  0.21397143  0.22941872  1
  Mg  Mg8  1  0.00000000  0.40574194  0.75000000  1
  Mg  Mg9  1  1.00000000  0.59425806  0.25000000  1
  Ge  Ge10  1  0.60069524  0.96640137  0.58791159  1
  Ge  Ge11  1  0.39930476  0.36570614  0.91208841  1
  Ge  Ge12  1  0.39930476  0.03359863  0.41208841  1
  Ge  Ge13  1  0.60069524  0.63429386  0.08791159  1
  N  N14  1  0.94460055  0.07779239  0.64378031  1
  N  N15  1  0.05539945  0.13319184  0.85621969  1
  N  N16  1  0.05539945  0.92220761  0.35621969  1
  N  N17  1  0.94460055  0.86680816  0.14378031  1
  N  N18  1  0.35193960  0.73471498  0.68741344  1
  N  N19  1  0.64806040  0.38277538  0.81258656  1
  N  N20  1  0.64806040  0.26528502  0.31258656  1
  N  N21  1  0.35193960  0.61722462  0.18741344  1
  N  N22  1  0.53721498  0.25877913  0.53677854  1
  N  N23  1  0.46278502  0.72156515  0.96322146  1
  N  N24  1  0.46278502  0.74122087  0.46322146  1
  N  N25  1  0.53721498  0.27843485  0.03677854  1
