# generated using pymatgen
data_Al2O3
_symmetry_space_group_name_H-M   'P 1'
_cell_length_a   10.35972138
_cell_length_b   10.36448381
_cell_length_c   10.48079178
_cell_angle_alpha   93.67247951
_cell_angle_beta   89.97627496
_cell_angle_gamma   88.85181994
_symmetry_Int_Tables_number   1
_chemical_formula_structural   Al2O3
_chemical_formula_sum   'Al40 O60'
_cell_volume   1122.81774725
_cell_formula_units_Z   20
loop_
 _symmetry_equiv_pos_site_id
 _symmetry_equiv_pos_as_xyz
  1  'x, y, z'
loop_
 _atom_site_type_symbol
 _atom_site_label
 _atom_site_symmetry_multiplicity
 _atom_site_fract_x
 _atom_site_fract_y
 _atom_site_fract_z
 _atom_site_occupancy
  Al  Al0  1  0.34711201  0.52216798  0.26095032  1
  Al  Al1  1  0.35992990  0.10075361  0.40442662  1
  Al  Al2  1  0.53816671  0.75942470  0.64212195  1
  Al  Al3  1  0.76696324  0.87220460  0.82862982  1
  Al  Al4  1  0.29927998  0.94658420  0.69649770  1
  Al  Al5  1  0.80145683  0.61875875  0.76398463  1
  Al  Al6  1  0.31936367  0.38064214  0.52738218  1
  Al  Al7  1  0.15920087  0.89057749  0.01295151  1
  Al  Al8  1  0.42363064  0.69405468  0.08295597  1
  Al  Al9  1  0.86963046  0.49499668  0.45884366  1
  Al  Al10  1  0.74220450  0.74598214  0.41182100  1
  Al  Al11  1  0.83610873  0.25876628  0.24731749  1
  Al  Al12  1  0.91701232  0.88152259  0.29242550  1
  Al  Al13  1  0.35116792  0.82317521  0.42128374  1
  Al  Al14  1  0.07108263  0.79995108  0.54135454  1
  Al  Al15  1  0.26755740  0.10677616  0.93252625  1
  Al  Al16  1  0.95717501  0.39749142  0.95882983  1
  Al  Al17  1  0.66645545  0.24768163  0.45263775  1
  Al  Al18  1  0.63191229  0.01098936  0.38774989  1
  Al  Al19  1  0.54987208  0.15366226  0.16386639  1
  Al  Al20  1  0.06291208  0.10456608  0.20083172  1
  Al  Al21  1  0.85851840  0.08811731  0.98795369  1
  Al  Al22  1  0.67574765  0.82689199  0.15813865  1
  Al  Al23  1  0.37358319  0.98623698  0.15760365  1
  Al  Al24  1  0.06386521  0.52510425  0.64442661  1
  Al  Al25  1  0.07872233  0.26919090  0.45610031  1
  Al  Al26  1  0.73372945  0.99775733  0.62577167  1
  Al  Al27  1  0.67740543  0.34089365  0.94758007  1
  Al  Al28  1  0.54110285  0.54538059  0.48880430  1
  Al  Al29  1  0.78349439  0.53444277  0.16354198  1
  Al  Al30  1  0.26242168  0.45105496  0.97685998  1
  Al  Al31  1  0.60113699  0.44008453  0.71143860  1
  Al  Al32  1  0.28200066  0.64524603  0.72348351  1
  Al  Al33  1  0.03972862  0.43889701  0.21427904  1
  Al  Al34  1  0.11773916  0.26805167  0.72473418  1
  Al  Al35  1  0.93678525  0.72356742  0.02083804  1
  Al  Al36  1  0.39929256  0.25418327  0.79224254  1
  Al  Al37  1  0.18647839  0.71717038  0.24204851  1
  Al  Al38  1  0.56631678  0.04636903  0.90964029  1
  Al  Al39  1  0.04387639  0.99299971  0.78462685  1
  O  O40  1  0.92196283  0.78973440  0.44183612  1
  O  O41  1  0.42575165  0.03737078  0.00564981  1
  O  O42  1  0.62374153  0.99129910  0.75590473  1
  O  O43  1  0.51054406  0.57512455  0.66339419  1
  O  O44  1  0.31407564  0.28498201  0.93810074  1
  O  O45  1  0.03715100  0.20087585  0.59369898  1
  O  O46  1  0.29143476  0.30171931  0.67726399  1
  O  O47  1  0.73221098  0.47546950  0.81381494  1
  O  O48  1  0.89686421  0.11857557  0.15086225  1
  O  O49  1  0.31118600  0.83026265  0.07958018  1
  O  O50  1  0.38137111  0.08557714  0.78449676  1
  O  O51  1  0.04764811  0.98066392  0.30113658  1
  O  O52  1  0.87056858  0.96611887  0.72604717  1
  O  O53  1  0.59243683  0.37458159  0.55043671  1
  O  O54  1  0.56323859  0.97334404  0.21044400  1
  O  O55  1  0.69890892  0.67881425  0.24809283  1
  O  O56  1  0.65360253  0.86727885  0.52841940  1
  O  O57  1  0.89040588  0.37005614  0.14033204  1
  O  O58  1  0.88099128  0.74088647  0.86403655  1
  O  O59  1  0.39432529  0.15962929  0.23103055  1
  O  O60  1  0.89522141  0.56135957  0.02409892  1
  O  O61  1  0.21207828  0.93336727  0.86013738  1
  O  O62  1  0.28050418  0.57681855  0.87246766  1
  O  O63  1  0.84443993  0.25417938  0.92146855  1
  O  O64  1  0.35773287  0.96452300  0.53734297  1
  O  O65  1  0.10882999  0.69436743  0.67127432  1
  O  O66  1  0.47338169  0.71286797  0.48040551  1
  O  O67  1  0.17528371  0.54073880  0.25971016  1
  O  O68  1  0.04557161  0.41939204  0.78959974  1
  O  O69  1  0.37868958  0.78953726  0.71420524  1
  O  O70  1  0.67368380  0.20257675  0.27385952  1
  O  O71  1  0.37798805  0.51938903  0.09225146  1
  O  O72  1  0.41529582  0.45562439  0.39785089  1
  O  O73  1  0.11458991  0.15141078  0.83857657  1
  O  O74  1  0.57039833  0.75530608  0.04215157  1
  O  O75  1  0.18293422  0.76835124  0.41125778  1
  O  O76  1  0.66036679  0.44665619  0.08320035  1
  O  O77  1  0.24940060  0.52050677  0.60186423  1
  O  O78  1  0.18976554  0.05683039  0.08996832  1
  O  O79  1  0.36701504  0.69588591  0.26025250  1
  O  O80  1  0.09071496  0.75470501  0.09796771  1
  O  O81  1  0.05041973  0.26275797  0.28562637  1
  O  O82  1  0.85489200  0.82471207  0.13360853  1
  O  O83  1  0.55222814  0.31974141  0.81077005  1
  O  O84  1  0.91275645  0.54442675  0.29851674  1
  O  O85  1  0.32710218  0.94985651  0.31261519  1
  O  O86  1  0.81499723  0.33319218  0.40963874  1
  O  O87  1  0.52119154  0.13448321  0.45072242  1
  O  O88  1  0.10879460  0.41204534  0.04765021  1
  O  O89  1  0.12340594  0.93836496  0.63803199  1
  O  O90  1  0.04234039  0.43640439  0.48968626  1
  O  O91  1  0.68092382  0.74380350  0.74117201  1
  O  O92  1  0.70785918  0.58756974  0.46845591  1
  O  O93  1  0.75151037  0.90515315  0.32204196  1
  O  O94  1  0.60907397  0.19295384  0.00921534  1
  O  O95  1  0.98801173  0.96648195  0.94904798  1
  O  O96  1  0.89149251  0.56621840  0.62668056  1
  O  O97  1  0.74646030  0.10379566  0.50511866  1
  O  O98  1  0.25408125  0.24245954  0.44068935  1
  O  O99  1  0.72471949  0.97516849  0.96843090  1
