# generated using pymatgen
data_GeCN2
_symmetry_space_group_name_H-M   'P 1'
_cell_length_a   3.62679366
_cell_length_b   3.62687660
_cell_length_c   9.81963238
_cell_angle_alpha   90.00000000
_cell_angle_beta   90.00000000
_cell_angle_gamma   119.99923443
_symmetry_Int_Tables_number   1
_chemical_formula_structural   GeCN2
_chemical_formula_sum   'Ge2 C2 N4'
_cell_volume   111.86258171
_cell_formula_units_Z   2
loop_
 _symmetry_equiv_pos_site_id
 _symmetry_equiv_pos_as_xyz
  1  'x, y, z'
loop_
 _atom_site_type_symbol
 _atom_site_label
 _atom_site_symmetry_multiplicity
 _atom_site_fract_x
 _atom_site_fract_y
 _atom_site_fract_z
 _atom_site_occupancy
  Ge  Ge0  1  0.00000000  -0.00000000  -0.00000000  1
  Ge  Ge1  1  0.00000000  -0.00000000  0.50000000  1
  C  C2  1  0.66668124  0.33336348  0.25000000  1
  C  C3  1  0.33331876  0.66663652  0.75000000  1
  N  N4  1  0.66668060  0.33336219  0.12389944  1
  N  N5  1  0.33331940  0.66663781  0.87610056  1
  N  N6  1  0.33331940  0.66663781  0.62389944  1
  N  N7  1  0.66668060  0.33336219  0.37610056  1
