# generated using pymatgen
data_SrZr7N10
_symmetry_space_group_name_H-M   'P 1'
_cell_length_a   6.65413694
_cell_length_b   6.90261330
_cell_length_c   13.72205651
_cell_angle_alpha   90.00000000
_cell_angle_beta   88.02659560
_cell_angle_gamma   90.00000000
_symmetry_Int_Tables_number   1
_chemical_formula_structural   SrZr7N10
_chemical_formula_sum   'Sr2 Zr14 N20'
_cell_volume   629.89307439
_cell_formula_units_Z   2
loop_
 _symmetry_equiv_pos_site_id
 _symmetry_equiv_pos_as_xyz
  1  'x, y, z'
loop_
 _atom_site_type_symbol
 _atom_site_label
 _atom_site_symmetry_multiplicity
 _atom_site_fract_x
 _atom_site_fract_y
 _atom_site_fract_z
 _atom_site_occupancy
  Sr  Sr0  1  0.88011442  0.05547657  0.61730154  1
  Sr  Sr1  1  0.88011442  0.94452343  0.11730154  1
  Zr  Zr2  1  0.59368805  0.04787481  0.82846675  1
  Zr  Zr3  1  0.59368805  0.95212519  0.32846675  1
  Zr  Zr4  1  0.40252561  0.96074506  0.03886834  1
  Zr  Zr5  1  0.40252561  0.03925494  0.53886834  1
  Zr  Zr6  1  0.12202636  0.41636335  0.07890619  1
  Zr  Zr7  1  0.12202636  0.58363665  0.57890619  1
  Zr  Zr8  1  0.69363452  0.40978327  0.98676010  1
  Zr  Zr9  1  0.69363452  0.59021673  0.48676010  1
  Zr  Zr10  1  0.88230582  0.60109429  0.78735298  1
  Zr  Zr11  1  0.88230582  0.39890571  0.28735298  1
  Zr  Zr12  1  0.30866481  0.59694784  0.87966669  1
  Zr  Zr13  1  0.30866481  0.40305216  0.37966669  1
  Zr  Zr14  1  0.49994335  0.41713078  0.68425951  1
  Zr  Zr15  1  0.49994335  0.58286922  0.18425951  1
  N  N16  1  0.82842825  0.88552946  0.78297939  1
  N  N17  1  0.82842825  0.11447054  0.28297939  1
  N  N18  1  0.65110425  0.11670694  0.98612622  1
  N  N19  1  0.65110425  0.88329306  0.48612622  1
  N  N20  1  0.36755184  0.88096463  0.88886841  1
  N  N21  1  0.36755184  0.11903537  0.38886841  1
  N  N22  1  0.16575406  0.13416383  0.06383630  1
  N  N23  1  0.16575406  0.86583617  0.56383630  1
  N  N24  1  0.20838503  0.53447187  0.73155847  1
  N  N25  1  0.20838503  0.46552813  0.23155847  1
  N  N26  1  0.51178252  0.12711827  0.68036679  1
  N  N27  1  0.51178252  0.87288173  0.18036679  1
  N  N28  1  0.80638347  0.47743267  0.13376455  1
  N  N29  1  0.80638347  0.52256733  0.63376455  1
  N  N30  1  0.00315336  0.52367653  0.93428231  1
  N  N31  1  0.00315336  0.47632347  0.43428231  1
  N  N32  1  0.60434188  0.44171395  0.83442962  1
  N  N33  1  0.60434188  0.55828605  0.33442962  1
  N  N34  1  0.41251239  0.55408654  0.03150585  1
  N  N35  1  0.41251239  0.44591346  0.53150585  1
