# generated using pymatgen
data_CdSi7N10
_symmetry_space_group_name_H-M   'P 1'
_cell_length_a   6.81302425
_cell_length_b   6.84752448
_cell_length_c   9.71453795
_cell_angle_alpha   90.00000000
_cell_angle_beta   104.74105058
_cell_angle_gamma   90.00000000
_symmetry_Int_Tables_number   1
_chemical_formula_structural   CdSi7N10
_chemical_formula_sum   'Cd2 Si14 N20'
_cell_volume   438.28906640
_cell_formula_units_Z   2
loop_
 _symmetry_equiv_pos_site_id
 _symmetry_equiv_pos_as_xyz
  1  'x, y, z'
loop_
 _atom_site_type_symbol
 _atom_site_label
 _atom_site_symmetry_multiplicity
 _atom_site_fract_x
 _atom_site_fract_y
 _atom_site_fract_z
 _atom_site_occupancy
  Cd  Cd0  1  0.99492154  0.97118360  0.70360978  1
  Cd  Cd1  1  0.99492154  0.02881640  0.20360978  1
  Si  Si2  1  0.54428547  0.98052979  0.82587072  1
  Si  Si3  1  0.54428547  0.01947021  0.32587072  1
  Si  Si4  1  0.35523073  0.02308377  0.02088540  1
  Si  Si5  1  0.35523073  0.97691623  0.52088540  1
  Si  Si6  1  0.10550413  0.39971760  0.07200622  1
  Si  Si7  1  0.10550413  0.60028240  0.57200622  1
  Si  Si8  1  0.66064902  0.36634242  0.99082026  1
  Si  Si9  1  0.66064902  0.63365758  0.49082026  1
  Si  Si10  1  0.84544591  0.61608481  0.80427993  1
  Si  Si11  1  0.84544591  0.38391519  0.30427993  1
  Si  Si12  1  0.29620258  0.61701080  0.88145693  1
  Si  Si13  1  0.29620258  0.38298920  0.38145693  1
  Si  Si14  1  0.48130273  0.36982322  0.68534052  1
  Si  Si15  1  0.48130273  0.63017678  0.18534052  1
  N  N16  1  0.74919493  0.84661398  0.81265604  1
  N  N17  1  0.74919493  0.15338602  0.31265604  1
  N  N18  1  0.55915508  0.13653620  0.97155123  1
  N  N19  1  0.55915508  0.86346380  0.47155123  1
  N  N20  1  0.32370906  0.86861523  0.86824442  1
  N  N21  1  0.32370906  0.13138477  0.36824442  1
  N  N22  1  0.15268670  0.15861379  0.03643474  1
  N  N23  1  0.15268670  0.84138621  0.53643474  1
  N  N24  1  0.28497685  0.50559455  0.72081183  1
  N  N25  1  0.28497685  0.49440545  0.22081183  1
  N  N26  1  0.44652448  0.11972627  0.67251578  1
  N  N27  1  0.44652448  0.88027373  0.17251578  1
  N  N28  1  0.88023000  0.39471376  0.12785453  1
  N  N29  1  0.88023000  0.60528624  0.62785453  1
  N  N30  1  0.07443140  0.56913647  0.93125145  1
  N  N31  1  0.07443140  0.43086353  0.43125145  1
  N  N32  1  0.69507288  0.41906803  0.82260158  1
  N  N33  1  0.69507288  0.58093197  0.32260158  1
  N  N34  1  0.49277851  0.53886556  0.02110962  1
  N  N35  1  0.49277851  0.46113444  0.52110962  1
