# generated using pymatgen
data_Cr2O3
_symmetry_space_group_name_H-M   'P 1'
_cell_length_a   10.19560725
_cell_length_b   9.95748283
_cell_length_c   9.54231847
_cell_angle_alpha   85.54428636
_cell_angle_beta   86.46255058
_cell_angle_gamma   93.03128229
_symmetry_Int_Tables_number   1
_chemical_formula_structural   Cr2O3
_chemical_formula_sum   'Cr32 O48'
_cell_volume   962.37214927
_cell_formula_units_Z   16
loop_
 _symmetry_equiv_pos_site_id
 _symmetry_equiv_pos_as_xyz
  1  'x, y, z'
loop_
 _atom_site_type_symbol
 _atom_site_label
 _atom_site_symmetry_multiplicity
 _atom_site_fract_x
 _atom_site_fract_y
 _atom_site_fract_z
 _atom_site_occupancy
  Cr  Cr0  1  0.44653351  0.29986879  0.45251133  1
  Cr  Cr1  1  0.67426497  0.28546263  0.25857370  1
  Cr  Cr2  1  0.50422339  0.51318624  0.00578081  1
  Cr  Cr3  1  0.15135209  0.48957283  0.60231230  1
  Cr  Cr4  1  0.86453473  0.13987773  0.41463022  1
  Cr  Cr5  1  0.99924221  0.85275034  0.86506171  1
  Cr  Cr6  1  0.59441253  0.96591087  0.47889838  1
  Cr  Cr7  1  0.60655198  0.73566347  0.70228461  1
  Cr  Cr8  1  0.28449386  0.31557761  0.75648969  1
  Cr  Cr9  1  0.60306052  0.60475283  0.32080556  1
  Cr  Cr10  1  0.80954997  0.62494859  0.01742558  1
  Cr  Cr11  1  0.19369991  0.86273110  0.63186859  1
  Cr  Cr12  1  0.33759292  0.93687699  0.27438516  1
  Cr  Cr13  1  0.41143584  0.85763150  0.94577918  1
  Cr  Cr14  1  0.91903196  0.06800903  0.13365579  1
  Cr  Cr15  1  0.43325100  0.23159294  0.04148243  1
  Cr  Cr16  1  0.93288174  0.75011216  0.28711294  1
  Cr  Cr17  1  0.53582307  0.44273241  0.70558272  1
  Cr  Cr18  1  0.03328360  0.14882127  0.74545119  1
  Cr  Cr19  1  0.39566767  0.65067462  0.49356585  1
  Cr  Cr20  1  0.03734962  0.37126326  0.92854913  1
  Cr  Cr21  1  0.87498464  0.92888238  0.59622045  1
  Cr  Cr22  1  0.57335956  0.12586878  0.75553306  1
  Cr  Cr23  1  0.71780267  0.92356761  0.91841903  1
  Cr  Cr24  1  0.22229369  0.04127305  -0.00034186  1
  Cr  Cr25  1  0.16724793  0.13844360  0.48881677  1
  Cr  Cr26  1  0.89273876  0.50347267  0.46150613  1
  Cr  Cr27  1  0.62890342  0.99852397  0.17522779  1
  Cr  Cr28  1  0.17479512  0.66962849  0.01654773  1
  Cr  Cr29  1  0.26475445  0.48227533  0.23057602  1
  Cr  Cr30  1  0.02138927  0.33343888  0.22945983  1
  Cr  Cr31  1  0.76544989  0.29370685  0.91792310  1
  O  O32  1  0.17610122  0.46769698  0.79925263  1
  O  O33  1  0.64544519  0.60067327  0.11894896  1
  O  O34  1  0.67720260  0.11028958  0.92192141  1
  O  O35  1  0.86795770  0.48041997  0.94730006  1
  O  O36  1  0.59395158  0.41420765  0.37318984  1
  O  O37  1  0.85789059  0.33763444  0.35564639  1
  O  O38  1  0.60475996  0.57603095  0.82274284  1
  O  O39  1  0.12549416  0.46783706  0.09561744  1
  O  O40  1  0.96823192  0.50269216  0.62028218  1
  O  O41  1  0.96377527  0.70006004  0.09495953  1
  O  O42  1  0.39696216  0.59370334  0.31849556  1
  O  O43  1  0.46116389  0.83062401  0.40043229  1
  O  O44  1  0.42796134  0.37238302  0.87755143  1
  O  O45  1  0.23779195  0.67978392  0.57543797  1
  O  O46  1  0.92466241  0.28507904  0.80124436  1
  O  O47  1  0.98481871  0.10412983  0.55638730  1
  O  O48  1  0.14802019  0.28623498  0.62352120  1
  O  O49  1  0.40145876  0.39180312  0.15284008  1
  O  O50  1  0.27480477  0.86645059  0.10594955  1
  O  O51  1  0.19643100  0.82828286  0.84874523  1
  O  O52  1  0.04337223  0.97801450  0.02238659  1
  O  O53  1  0.76073611  0.11753563  0.25332179  1
  O  O54  1  0.71777520  0.82054860  0.56553070  1
  O  O55  1  0.52743486  0.15393245  0.34657487  1
  O  O56  1  0.41396887  0.08021660  0.91116243  1
  O  O57  1  0.91407169  0.26186968  0.07116868  1
  O  O58  1  0.16013224  0.21347472  0.90077030  1
  O  O59  1  0.79396055  0.92499480  0.09821590  1
  O  O60  1  0.43880185  0.21073863  0.63082457  1
  O  O61  1  0.01047521  0.81137636  0.66257854  1
  O  O62  1  0.81336792  0.75789328  0.87823784  1
  O  O63  1  0.55681030  0.90201968  0.78054389  1
  O  O64  1  0.55908712  0.86757379  0.05338182  1
  O  O65  1  0.03524031  0.62780269  0.36483876  1
  O  O66  1  0.78944590  0.62734398  0.34362372  1
  O  O67  1  0.36080173  0.44816384  0.57959160  1
  O  O68  1  0.31020561  0.11051287  0.16194300  1
  O  O69  1  0.56246725  0.60779981  0.55189722  1
  O  O70  1  0.72631962  0.07989990  0.56571078  1
  O  O71  1  0.18643332  0.04608435  0.67541980  1
  O  O72  1  0.37490349  0.65513392  0.98247155  1
  O  O73  1  0.61480829  0.32082475  0.06400639  1
  O  O74  1  0.91492803  0.90033743  0.37703111  1
  O  O75  1  0.02246231  0.14623883  0.28169536  1
  O  O76  1  0.88768580  0.99097732  0.79359801  1
  O  O77  1  0.23015263  0.96411444  0.43551072  1
  O  O78  1  0.65864481  0.31203093  0.74756441  1
  O  O79  1  0.16848893  0.35528462  0.35599448  1
