# generated using pymatgen
data_Al2O3
_symmetry_space_group_name_H-M   'P 1'
_cell_length_a   10.14628100
_cell_length_b   10.03506928
_cell_length_c   10.30027131
_cell_angle_alpha   89.34777588
_cell_angle_beta   92.21582650
_cell_angle_gamma   89.80477790
_symmetry_Int_Tables_number   1
_chemical_formula_structural   Al2O3
_chemical_formula_sum   'Al40 O60'
_cell_volume   1047.89969098
_cell_formula_units_Z   20
loop_
 _symmetry_equiv_pos_site_id
 _symmetry_equiv_pos_as_xyz
  1  'x, y, z'
loop_
 _atom_site_type_symbol
 _atom_site_label
 _atom_site_symmetry_multiplicity
 _atom_site_fract_x
 _atom_site_fract_y
 _atom_site_fract_z
 _atom_site_occupancy
  Al  Al0  1  0.48936782  0.52832474  0.22240756  1
  Al  Al1  1  0.37874208  0.06670492  0.42769679  1
  Al  Al2  1  0.53478372  0.65818697  0.77009308  1
  Al  Al3  1  0.73286689  0.86989553  0.83462184  1
  Al  Al4  1  0.42900057  0.91647492  0.70737530  1
  Al  Al5  1  0.84788163  0.60989376  0.75114721  1
  Al  Al6  1  0.35679936  0.34327927  0.47675314  1
  Al  Al7  1  0.12341505  0.93651750  0.99168209  1
  Al  Al8  1  0.35287005  0.75243974  0.93908874  1
  Al  Al9  1  0.86172400  0.38668761  0.55012578  1
  Al  Al10  1  0.88041772  0.66050173  0.40231425  1
  Al  Al11  1  0.84546664  0.21838760  0.26488027  1
  Al  Al12  1  0.89954237  0.90207284  0.21286275  1
  Al  Al13  1  0.40322113  0.77301121  0.45108388  1
  Al  Al14  1  0.12040501  0.86421137  0.48265251  1
  Al  Al15  1  0.15954566  0.20660875  0.93395571  1
  Al  Al16  1  0.91161599  0.38941920  0.96534022  1
  Al  Al17  1  0.66636553  0.20546223  0.50737037  1
  Al  Al18  1  0.63787633  0.98745175  0.31888592  1
  Al  Al19  1  0.52116866  0.26009553  0.21860275  1
  Al  Al20  1  0.18298123  0.18416977  0.24641556  1
  Al  Al21  1  0.83945688  0.09841775  0.98256674  1
  Al  Al22  1  0.63161863  0.80044968  0.08434675  1
  Al  Al23  1  0.35273979  0.99221437  0.15918262  1
  Al  Al24  1  0.14176815  0.57075617  0.52768795  1
  Al  Al25  1  0.07523109  0.17290255  0.48961699  1
  Al  Al26  1  0.74017487  0.90325453  0.58981034  1
  Al  Al27  1  0.45603656  0.38316356  0.96136364  1
  Al  Al28  1  0.62350665  0.64494983  0.45501375  1
  Al  Al29  1  0.74338152  0.51503736  0.20173370  1
  Al  Al30  1  0.20626705  0.51174029  0.05896350  1
  Al  Al31  1  0.67743905  0.35159878  0.80862482  1
  Al  Al32  1  0.13193902  0.68597123  0.77662942  1
  Al  Al33  1  0.02768864  0.49279214  0.22355091  1
  Al  Al34  1  0.14264345  0.34348708  0.72123655  1
  Al  Al35  1  0.93348494  0.68929615  0.02366337  1
  Al  Al36  1  0.36890019  0.20511374  0.76953709  1
  Al  Al37  1  0.17194446  0.78688125  0.23093499  1
  Al  Al38  1  0.53652606  0.08896373  0.95297953  1
  Al  Al39  1  0.03962590  0.99902671  0.74412365  1
  O  O40  1  0.98456646  0.82553954  0.35713356  1
  O  O41  1  0.51293502  0.96159924  0.09231307  1
  O  O42  1  0.60381192  0.92441376  0.69544096  1
  O  O43  1  0.54011487  0.48694964  0.83745232  1
  O  O44  1  0.29716968  0.31575528  0.89536866  1
  O  O45  1  0.16707741  0.14345823  0.76804613  1
  O  O46  1  0.30742626  0.30912693  0.64475185  1
  O  O47  1  0.80542621  0.47613280  0.85024009  1
  O  O48  1  0.87937386  0.07306653  0.15150681  1
  O  O49  1  0.27828892  0.84264033  0.07480248  1
  O  O50  1  0.40553084  0.03591606  0.83144821  1
  O  O51  1  0.01686314  0.17981001  0.32566127  1
  O  O52  1  0.86293820  0.93148671  0.71843648  1
  O  O53  1  0.72194972  0.31445549  0.64208078  1
  O  O54  1  0.47958493  0.92632560  0.36218838  1
  O  O55  1  0.61965292  0.63925518  0.15182861  1
  O  O56  1  0.75269670  0.76828594  0.47997250  1
  O  O57  1  0.87565362  0.37771041  0.17720788  1
  O  O58  1  0.96943135  0.68983815  0.84721458  1
  O  O59  1  0.37908634  0.14243643  0.25392202  1
  O  O60  1  0.88490879  0.63411752  0.19889473  1
  O  O61  1  0.14548203  0.87329969  0.83079951  1
  O  O62  1  0.22849980  0.62860371  0.92349771  1
  O  O63  1  0.78916298  0.26001748  0.94302270  1
  O  O64  1  0.34174911  0.93642247  0.55383266  1
  O  O65  1  0.10356775  0.73597015  0.60078258  1
  O  O66  1  0.51222267  0.68015689  0.58153008  1
  O  O67  1  0.16624255  0.61417301  0.19521849  1
  O  O68  1  0.13294731  0.51861412  0.69855598  1
  O  O69  1  0.37138153  0.75674398  0.76208466  1
  O  O70  1  0.66031954  0.15486695  0.26451518  1
  O  O71  1  0.38318249  0.49418256  0.07982104  1
  O  O72  1  0.45655668  0.38108380  0.33324211  1
  O  O73  1  0.04400450  0.32584205  0.87780408  1
  O  O74  1  0.52880200  0.75553248  0.93910741  1
  O  O75  1  0.23536783  0.75947093  0.39775048  1
  O  O76  1  0.61395154  0.40272640  0.16017792  1
  O  O77  1  0.27656959  0.49458012  0.46882873  1
  O  O78  1  0.20565485  0.08952623  0.05921587  1
  O  O79  1  0.48233261  0.65870939  0.34446290  1
  O  O80  1  0.02695863  0.83578469  0.10360152  1
  O  O81  1  0.15276370  0.34984877  0.16444101  1
  O  O82  1  0.78859487  0.79403917  0.99398267  1
  O  O83  1  0.54030528  0.23846314  0.82442271  1
  O  O84  1  0.01335911  0.53469908  0.39986902  1
  O  O85  1  0.20798808  0.97262808  0.27659629  1
  O  O86  1  0.80137030  0.28274236  0.42244205  1
  O  O87  1  0.49043454  0.18963970  0.50512253  1
  O  O88  1  0.01266051  0.52245513  0.03325404  1
  O  O89  1  0.06358822  0.01139276  0.56337515  1
  O  O90  1  0.01660313  0.29904555  0.59198727  1
  O  O91  1  0.70649778  0.70905869  0.75662139  1
  O  O92  1  0.73711005  0.54092874  0.37779279  1
  O  O93  1  0.72865043  0.87419385  0.22933727  1
  O  O94  1  0.48459193  0.22490411  0.05020805  1
  O  O95  1  0.99191676  0.04842367  0.91704983  1
  O  O96  1  0.86880712  0.55592532  0.59369216  1
  O  O97  1  0.71665130  0.03436324  0.47720640  1
  O  O98  1  0.23967798  0.19604743  0.42991186  1
  O  O99  1  0.69537941  0.01777350  0.92487948  1
