# generated using pymatgen
data_Ca3InN3
_symmetry_space_group_name_H-M   'P 1'
_cell_length_a   7.47654646
_cell_length_b   7.48022169
_cell_length_c   5.08844975
_cell_angle_alpha   90.00000000
_cell_angle_beta   90.00000000
_cell_angle_gamma   119.99699298
_symmetry_Int_Tables_number   1
_chemical_formula_structural   Ca3InN3
_chemical_formula_sum   'Ca6 In2 N6'
_cell_volume   246.45905899
_cell_formula_units_Z   2
loop_
 _symmetry_equiv_pos_site_id
 _symmetry_equiv_pos_as_xyz
  1  'x, y, z'
loop_
 _atom_site_type_symbol
 _atom_site_label
 _atom_site_symmetry_multiplicity
 _atom_site_fract_x
 _atom_site_fract_y
 _atom_site_fract_z
 _atom_site_occupancy
  Ca  Ca0  1  0.93375739  0.66062577  0.25000000  1
  Ca  Ca1  1  0.72694483  0.06624402  0.25000000  1
  Ca  Ca2  1  0.33932027  0.27313781  0.25000000  1
  Ca  Ca3  1  0.06624261  0.33937423  0.75000000  1
  Ca  Ca4  1  0.27305517  0.93375598  0.75000000  1
  Ca  Ca5  1  0.66067973  0.72686219  0.75000000  1
  In  In6  1  0.66663937  0.33339658  0.75000000  1
  In  In7  1  0.33336063  0.66660342  0.25000000  1
  N  N8  1  0.93326117  0.63308610  0.75000000  1
  N  N9  1  0.69977382  0.06666108  0.75000000  1
  N  N10  1  0.36683530  0.30013315  0.75000000  1
  N  N11  1  0.06673883  0.36691390  0.25000000  1
  N  N12  1  0.30022618  0.93333892  0.25000000  1
  N  N13  1  0.63316470  0.69986685  0.25000000  1
