# generated using pymatgen
data_Al2O3
_symmetry_space_group_name_H-M   'P 1'
_cell_length_a   10.23176377
_cell_length_b   10.34484835
_cell_length_c   10.68728905
_cell_angle_alpha   94.07637725
_cell_angle_beta   92.10426160
_cell_angle_gamma   91.85291821
_symmetry_Int_Tables_number   1
_chemical_formula_structural   Al2O3
_chemical_formula_sum   'Al40 O60'
_cell_volume   1126.89155335
_cell_formula_units_Z   20
loop_
 _symmetry_equiv_pos_site_id
 _symmetry_equiv_pos_as_xyz
  1  'x, y, z'
loop_
 _atom_site_type_symbol
 _atom_site_label
 _atom_site_symmetry_multiplicity
 _atom_site_fract_x
 _atom_site_fract_y
 _atom_site_fract_z
 _atom_site_occupancy
  Al  Al0  1  0.66673422  0.62826881  0.64016256  1
  Al  Al1  1  0.92003598  0.60855386  0.50413903  1
  Al  Al2  1  0.45712327  0.84476907  0.68205996  1
  Al  Al3  1  0.76958448  0.63536503  0.07159387  1
  Al  Al4  1  0.88190716  0.52218359  0.24946610  1
  Al  Al5  1  0.21945907  0.72155923  0.54381507  1
  Al  Al6  1  0.14353066  0.47478618  0.66597056  1
  Al  Al7  1  0.96687521  0.23190135  0.51403234  1
  Al  Al8  1  0.40832732  0.36360492  0.24499865  1
  Al  Al9  1  0.74915130  0.18980998  0.81823639  1
  Al  Al10  1  0.50021730  0.71364152  0.41813779  1
  Al  Al11  1  0.27232307  0.74201973  0.83450265  1
  Al  Al12  1  0.68912543  0.25588091  0.35962210  1
  Al  Al13  1  0.99479192  0.90437698  0.57218291  1
  Al  Al14  1  0.72091257  0.93869909  0.00295389  1
  Al  Al15  1  0.95322923  0.67902256  0.80216972  1
  Al  Al16  1  0.38317627  0.12340842  0.14029331  1
  Al  Al17  1  0.06247081  0.14232181  0.72432647  1
  Al  Al18  1  0.58443486  0.72091814  0.88345015  1
  Al  Al19  1  0.58138971  0.11852329  0.57290385  1
  Al  Al20  1  0.60785006  0.41045488  0.81867900  1
  Al  Al21  1  0.06018824  0.33599536  0.08434099  1
  Al  Al22  1  0.93064387  0.37365717  0.81307277  1
  Al  Al23  1  0.96089250  0.82364479  0.29627680  1
  Al  Al24  1  0.24191571  0.80105824  0.29498715  1
  Al  Al25  1  0.44290044  0.40994363  0.50483456  1
  Al  Al26  1  0.96628540  0.07953317  0.95559453  1
  Al  Al27  1  0.76066387  0.31881952  0.06477431  1
  Al  Al28  1  0.75368305  0.90217328  0.72819756  1
  Al  Al29  1  0.29024514  0.00753568  0.54748818  1
  Al  Al30  1  0.87814866  0.07591356  0.19317533  1
  Al  Al31  1  0.43662477  0.64176197  0.11345283  1
  Al  Al32  1  0.60652635  0.95838549  0.29254676  1
  Al  Al33  1  0.37577659  0.34922267  0.97950143  1
  Al  Al34  1  0.27657949  0.06124296  0.85077302  1
  Al  Al35  1  0.41209592  0.90104706  0.03807031  1
  Al  Al36  1  0.22111386  0.14945835  0.37017581  1
  Al  Al37  1  0.35151949  0.24953943  0.67844542  1
  Al  Al38  1  0.02262288  0.79093117  0.03239410  1
  Al  Al39  1  0.13927815  0.43515761  0.37636758  1
  O  O40  1  0.24447947  0.97072819  0.37184766  1
  O  O41  1  0.28710094  0.21521861  0.24196657  1
  O  O42  1  0.76529334  0.35128183  0.74932670  1
  O  O43  1  0.94245249  0.77649099  0.45680243  1
  O  O44  1  0.52501410  0.28534962  0.63173289  1
  O  O45  1  0.92998256  0.19309469  0.82192989  1
  O  O46  1  0.09170630  0.26020234  0.40382768  1
  O  O47  1  0.22824246  0.11317802  0.68130421  1
  O  O48  1  0.65522559  0.28881119  0.93098351  1
  O  O49  1  0.06452384  0.50940880  0.51426647  1
  O  O50  1  0.46855309  0.26216661  0.10409483  1
  O  O51  1  0.91986255  0.86532891  0.71174197  1
  O  O52  1  0.98208498  0.07485673  0.57820528  1
  O  O53  1  0.75312440  0.48042635  0.13417899  1
  O  O54  1  0.10441368  0.75997326  0.88975942  1
  O  O55  1  0.69967981  0.06609532  0.69475213  1
  O  O56  1  0.76981630  0.22993996  0.20802317  1
  O  O57  1  0.91692098  0.37282917  0.98998891  1
  O  O58  1  0.65319681  0.57792103  0.79476513  1
  O  O59  1  0.16455235  0.88196231  0.57899724  1
  O  O60  1  0.61676879  0.09835607  0.40654097  1
  O  O61  1  0.78147468  0.08298316  0.94454888  1
  O  O62  1  0.34210215  0.74134803  0.01286268  1
  O  O63  1  0.73975785  0.82050085  0.86972096  1
  O  O64  1  0.54607151  0.57020971  0.51621692  1
  O  O65  1  0.30675212  0.02878424  0.01484351  1
  O  O66  1  0.84487010  0.62890520  0.64951561  1
  O  O67  1  0.02321440  0.51714008  0.78762764  1
  O  O68  1  0.10352785  0.80384999  0.18542296  1
  O  O69  1  0.10276985  0.05330764  0.86168305  1
  O  O70  1  0.72344788  0.97246248  0.17088958  1
  O  O71  1  0.31484194  0.43776357  0.38001196  1
  O  O72  1  0.53959818  0.34474075  0.36420203  1
  O  O73  1  0.82224237  0.52060301  0.39473361  1
  O  O74  1  0.81024309  0.26640566  0.47618132  1
  O  O75  1  0.99871579  0.17088673  0.10659473  1
  O  O76  1  0.92824756  0.93379577  0.04122935  1
  O  O77  1  0.17336746  0.68165690  0.38629585  1
  O  O78  1  0.39735672  0.48411187  0.13513802  1
  O  O79  1  0.45976249  0.98077165  0.19333988  1
  O  O80  1  0.39839427  0.72277725  0.26636514  1
  O  O81  1  0.36902247  0.21418012  0.84612052  1
  O  O82  1  0.20238406  0.34282289  0.00499445  1
  O  O83  1  0.46030934  0.45380706  0.88637410  1
  O  O84  1  0.38620159  0.77142059  0.53094844  1
  O  O85  1  0.44232377  0.71007188  0.78357183  1
  O  O86  1  0.20359332  0.64830166  0.68760050  1
  O  O87  1  0.86996011  0.69316556  0.20861573  1
  O  O88  1  0.60246958  0.67575679  0.04833886  1
  O  O89  1  0.62034992  0.81947899  0.37274471  1
  O  O90  1  0.32564092  0.90436933  0.79123388  1
  O  O91  1  0.45799492  0.00174885  0.61092389  1
  O  O92  1  0.04745563  0.30855605  0.66458973  1
  O  O93  1  0.62966957  0.80038466  0.64651296  1
  O  O94  1  0.30336756  0.40589091  0.63101170  1
  O  O95  1  0.03872199  0.44393469  0.23042322  1
  O  O96  1  0.55223095  0.90311019  0.95625870  1
  O  O97  1  0.89623044  0.66790861  0.96672498  1
  O  O98  1  0.33396341  0.17495585  0.49863947  1
  O  O99  1  0.94630109  0.99192432  0.31468181  1
