# generated using pymatgen
data_Si3Sb5N9
_symmetry_space_group_name_H-M   'P 1'
_cell_length_a   8.19707227
_cell_length_b   12.19859507
_cell_length_c   15.50448877
_cell_angle_alpha   90.00000000
_cell_angle_beta   90.00000000
_cell_angle_gamma   138.08035423
_symmetry_Int_Tables_number   1
_chemical_formula_structural   Si3Sb5N9
_chemical_formula_sum   'Si12 Sb20 N36'
_cell_volume   1035.76092937
_cell_formula_units_Z   4
loop_
 _symmetry_equiv_pos_site_id
 _symmetry_equiv_pos_as_xyz
  1  'x, y, z'
loop_
 _atom_site_type_symbol
 _atom_site_label
 _atom_site_symmetry_multiplicity
 _atom_site_fract_x
 _atom_site_fract_y
 _atom_site_fract_z
 _atom_site_occupancy
  Si  Si0  1  0.00000000  0.78910639  0.02427012  1
  Si  Si1  1  -0.00000000  0.21089361  0.97572988  1
  Si  Si2  1  -0.00000000  0.71089361  0.52427012  1
  Si  Si3  1  0.00000000  0.28910639  0.47572988  1
  Si  Si4  1  -0.00000000  0.21091513  0.76910456  1
  Si  Si5  1  0.00000000  0.78908487  0.23089544  1
  Si  Si6  1  0.00000000  0.28908487  0.26910456  1
  Si  Si7  1  -0.00000000  0.71091513  0.73089544  1
  Si  Si8  1  0.50000000  0.78887526  0.75000000  1
  Si  Si9  1  0.50000000  0.71112474  0.25000000  1
  Si  Si10  1  0.50000000  0.21112474  0.25000000  1
  Si  Si11  1  0.50000000  0.28887526  0.75000000  1
  Sb  Sb12  1  0.00000000  0.54874678  0.87570942  1
  Sb  Sb13  1  -0.00000000  0.45125322  0.12429058  1
  Sb  Sb14  1  -0.00000000  0.95125322  0.37570942  1
  Sb  Sb15  1  0.00000000  0.04874678  0.62429058  1
  Sb  Sb16  1  0.36083296  0.97499803  0.87314819  1
  Sb  Sb17  1  0.36083296  0.38583593  0.12685181  1
  Sb  Sb18  1  0.36083296  0.88583593  0.37314819  1
  Sb  Sb19  1  0.36083296  0.47499803  0.62685181  1
  Sb  Sb20  1  0.63916704  0.02500197  0.12685181  1
  Sb  Sb21  1  0.63916704  0.61416407  0.87314819  1
  Sb  Sb22  1  0.63916704  0.11416407  0.62685181  1
  Sb  Sb23  1  0.63916704  0.52500197  0.37314819  1
  Sb  Sb24  1  -0.00000000  0.49769821  0.65567583  1
  Sb  Sb25  1  0.00000000  0.50230179  0.34432417  1
  Sb  Sb26  1  0.00000000  0.00230179  0.15567583  1
  Sb  Sb27  1  -0.00000000  0.99769821  0.84432417  1
  Sb  Sb28  1  0.48340420  0.24170260  0.00000000  1
  Sb  Sb29  1  0.48340420  0.74170260  0.50000000  1
  Sb  Sb30  1  0.51659580  0.75829740  0.00000000  1
  Sb  Sb31  1  0.51659580  0.25829740  0.50000000  1
  N  N32  1  -0.00000000  0.32572797  0.69781185  1
  N  N33  1  0.00000000  0.67427203  0.30218815  1
  N  N34  1  0.00000000  0.17427203  0.19781185  1
  N  N35  1  -0.00000000  0.82572797  0.80218815  1
  N  N36  1  -0.00000000  0.24310198  0.87146917  1
  N  N37  1  0.00000000  0.75689802  0.12853083  1
  N  N38  1  0.00000000  0.25689802  0.37146917  1
  N  N39  1  -0.00000000  0.74310198  0.62853083  1
  N  N40  1  0.77122577  0.49953619  0.76912742  1
  N  N41  1  0.77122577  0.27168857  0.23087258  1
  N  N42  1  0.77122577  0.77168857  0.26912742  1
  N  N43  1  0.77122577  0.99953619  0.73087258  1
  N  N44  1  0.22877423  0.50046381  0.23087258  1
  N  N45  1  0.22877423  0.72831143  0.76912742  1
  N  N46  1  0.22877423  0.22831143  0.73087258  1
  N  N47  1  0.22877423  0.00046381  0.26912742  1
  N  N48  1  0.43163427  0.18208496  0.84487516  1
  N  N49  1  0.43163427  0.24954931  0.15512484  1
  N  N50  1  0.43163427  0.74954931  0.34487516  1
  N  N51  1  0.43163427  0.68208496  0.65512484  1
  N  N52  1  0.56836573  0.81791504  0.15512484  1
  N  N53  1  0.56836573  0.75045069  0.84487516  1
  N  N54  1  0.56836573  0.25045069  0.65512484  1
  N  N55  1  0.56836573  0.31791504  0.34487516  1
  N  N56  1  0.26065444  0.99431809  0.99045842  1
  N  N57  1  0.26065444  0.26633735  0.00954158  1
  N  N58  1  0.26065444  0.76633735  0.49045842  1
  N  N59  1  0.26065444  0.49431809  0.50954158  1
  N  N60  1  0.73934556  0.00568191  0.00954158  1
  N  N61  1  0.73934556  0.73366265  0.99045842  1
  N  N62  1  0.73934556  0.23366265  0.50954158  1
  N  N63  1  0.73934556  0.50568191  0.49045842  1
  N  N64  1  0.00000000  0.68873612  0.94428547  1
  N  N65  1  1.00000000  0.31126388  0.05571453  1
  N  N66  1  1.00000000  0.81126388  0.44428547  1
  N  N67  1  0.00000000  0.18873612  0.55571453  1
