# generated using pymatgen
data_GaSi2N3
_symmetry_space_group_name_H-M   'P 1'
_cell_length_a   5.55051360
_cell_length_b   5.79540355
_cell_length_c   4.91595651
_cell_angle_alpha   90.00000000
_cell_angle_beta   90.00000000
_cell_angle_gamma   121.47054228
_symmetry_Int_Tables_number   1
_chemical_formula_structural   GaSi2N3
_chemical_formula_sum   'Ga2 Si4 N6'
_cell_volume   134.87374690
_cell_formula_units_Z   2
loop_
 _symmetry_equiv_pos_site_id
 _symmetry_equiv_pos_as_xyz
  1  'x, y, z'
loop_
 _atom_site_type_symbol
 _atom_site_label
 _atom_site_symmetry_multiplicity
 _atom_site_fract_x
 _atom_site_fract_y
 _atom_site_fract_z
 _atom_site_occupancy
  Ga  Ga0  1  -0.00000000  0.63556655  0.55239200  1
  Ga  Ga1  1  0.00000000  0.36443345  0.05239200  1
  Si  Si2  1  0.35117474  0.31303585  0.48280182  1
  Si  Si3  1  0.64882526  0.96186111  0.48280182  1
  Si  Si4  1  0.64882526  0.68696415  0.98280182  1
  Si  Si5  1  0.35117474  0.03813889  0.98280182  1
  N  N6  1  0.46886004  0.35946638  0.82334996  1
  N  N7  1  0.53113996  0.89060635  0.82334996  1
  N  N8  1  0.53113996  0.64053362  0.32334996  1
  N  N9  1  0.46886004  0.10939365  0.32334996  1
  N  N10  1  0.00000000  0.84204852  0.92330443  1
  N  N11  1  -0.00000000  0.15795148  0.42330443  1
