# generated using pymatgen
data_Ge3Pb3O10
_symmetry_space_group_name_H-M   'P 1'
_cell_length_a   9.50176739
_cell_length_b   9.50172438
_cell_length_c   9.50285517
_cell_angle_alpha   113.48692913
_cell_angle_beta   113.47621210
_cell_angle_gamma   113.53041431
_symmetry_Int_Tables_number   1
_chemical_formula_structural   Ge3Pb3O10
_chemical_formula_sum   'Ge6 Pb6 O20'
_cell_volume   540.10503740
_cell_formula_units_Z   2
loop_
 _symmetry_equiv_pos_site_id
 _symmetry_equiv_pos_as_xyz
  1  'x, y, z'
loop_
 _atom_site_type_symbol
 _atom_site_label
 _atom_site_symmetry_multiplicity
 _atom_site_fract_x
 _atom_site_fract_y
 _atom_site_fract_z
 _atom_site_occupancy
  Ge  Ge0  1  0.24246877  0.84676514  0.97819223  1
  Ge  Ge1  1  0.84643190  0.97903221  0.24257090  1
  Ge  Ge2  1  0.97815586  0.24301180  0.84595005  1
  Ge  Ge3  1  0.75697323  0.15379066  0.02115586  1
  Ge  Ge4  1  0.15310918  0.02166219  0.75692687  1
  Ge  Ge5  1  0.02135621  0.75777581  0.15352194  1
  Pb  Pb6  1  0.32734296  0.49088193  0.79438310  1
  Pb  Pb7  1  0.48957919  0.79444621  0.32683198  1
  Pb  Pb8  1  0.79407180  0.32716068  0.48943253  1
  Pb  Pb9  1  0.67214238  0.51001607  0.20524411  1
  Pb  Pb10  1  0.50988248  0.20584968  0.67290288  1
  Pb  Pb11  1  0.20493239  0.67274880  0.50922715  1
  O  O12  1  0.02215226  0.72056935  0.95340394  1
  O  O13  1  0.72005570  0.95370278  0.02203069  1
  O  O14  1  0.95293246  0.02244294  0.71979646  1
  O  O15  1  0.97745316  0.28053886  0.04626306  1
  O  O16  1  0.27948272  0.04696347  0.97746387  1
  O  O17  1  0.04663486  0.97834035  0.27981968  1
  O  O18  1  0.46791965  0.96384031  0.21243573  1
  O  O19  1  0.96382688  0.21346044  0.46809961  1
  O  O20  1  0.21295314  0.46859267  0.96361157  1
  O  O21  1  0.53138301  0.03593116  0.78657043  1
  O  O22  1  0.03564797  0.78705207  0.53149781  1
  O  O23  1  0.78676483  0.53216869  0.03612575  1
  O  O24  1  0.18235346  0.65434531  0.76224254  1
  O  O25  1  0.65382863  0.76296637  0.18239224  1
  O  O26  1  0.76225448  0.18282990  0.65343438  1
  O  O27  1  0.81671797  0.34610044  0.23686592  1
  O  O28  1  0.34580425  0.23777136  0.81720021  1
  O  O29  1  0.23738865  0.81802878  0.34596147  1
  O  O30  1  0.58681633  0.57991621  0.58809491  1
  O  O31  1  0.42118523  0.41129434  0.42035012  1
