# generated using pymatgen
data_Mg(GeN)2
_symmetry_space_group_name_H-M   'P 1'
_cell_length_a   3.04567946
_cell_length_b   3.04570235
_cell_length_c   8.83686324
_cell_angle_alpha   90.00054697
_cell_angle_beta   89.99981855
_cell_angle_gamma   120.00032257
_symmetry_Int_Tables_number   1
_chemical_formula_structural   Mg(GeN)2
_chemical_formula_sum   'Mg1 Ge2 N2'
_cell_volume   70.99029925
_cell_formula_units_Z   1
loop_
 _symmetry_equiv_pos_site_id
 _symmetry_equiv_pos_as_xyz
  1  'x, y, z'
loop_
 _atom_site_type_symbol
 _atom_site_label
 _atom_site_symmetry_multiplicity
 _atom_site_fract_x
 _atom_site_fract_y
 _atom_site_fract_z
 _atom_site_occupancy
  Mg  Mg0  1  0.00001429  0.99999656  0.00000165  1
  Ge  Ge1  1  0.66666080  0.33333252  0.28450041  1
  Ge  Ge2  1  0.33332854  0.66666449  0.71550052  1
  N  N3  1  0.66666872  0.33333503  0.84542690  1
  N  N4  1  0.33332765  0.66667139  0.15457052  1
