# generated using pymatgen
data_ScAlN2
_symmetry_space_group_name_H-M   'P 1'
_cell_length_a   5.78284106
_cell_length_b   6.78861286
_cell_length_c   5.03439138
_cell_angle_alpha   90.00000000
_cell_angle_beta   90.00000000
_cell_angle_gamma   90.00000000
_symmetry_Int_Tables_number   1
_chemical_formula_structural   ScAlN2
_chemical_formula_sum   'Sc4 Al4 N8'
_cell_volume   197.63746448
_cell_formula_units_Z   4
loop_
 _symmetry_equiv_pos_site_id
 _symmetry_equiv_pos_as_xyz
  1  'x, y, z'
loop_
 _atom_site_type_symbol
 _atom_site_label
 _atom_site_symmetry_multiplicity
 _atom_site_fract_x
 _atom_site_fract_y
 _atom_site_fract_z
 _atom_site_occupancy
  Sc  Sc0  1  0.59275563  0.87593273  0.97131316  1
  Sc  Sc1  1  0.40724437  0.12406727  0.47131316  1
  Sc  Sc2  1  0.90724437  0.37593273  0.47131316  1
  Sc  Sc3  1  0.09275563  0.62406727  0.97131316  1
  Al  Al4  1  0.57587458  0.37362293  0.98715099  1
  Al  Al5  1  0.42412542  0.62637707  0.48715099  1
  Al  Al6  1  0.92412542  0.87362293  0.48715099  1
  Al  Al7  1  0.07587458  0.12637707  0.98715099  1
  N  N8  1  0.59904297  0.85936728  0.39922106  1
  N  N9  1  0.40095703  0.14063272  0.89922106  1
  N  N10  1  0.90095703  0.35936728  0.89922106  1
  N  N11  1  0.09904297  0.64063272  0.39922106  1
  N  N12  1  0.56085599  0.39042653  0.36431379  1
  N  N13  1  0.43914401  0.60957347  0.86431379  1
  N  N14  1  0.93914401  0.89042653  0.86431379  1
  N  N15  1  0.06085599  0.10957347  0.36431379  1
