# generated using pymatgen
data_Ca3ScN3
_symmetry_space_group_name_H-M   'P 1'
_cell_length_a   7.55918282
_cell_length_b   7.55921466
_cell_length_c   5.02949493
_cell_angle_alpha   90.00000000
_cell_angle_beta   90.00000000
_cell_angle_gamma   119.99854837
_symmetry_Int_Tables_number   1
_chemical_formula_structural   Ca3ScN3
_chemical_formula_sum   'Ca6 Sc2 N6'
_cell_volume   248.89311684
_cell_formula_units_Z   2
loop_
 _symmetry_equiv_pos_site_id
 _symmetry_equiv_pos_as_xyz
  1  'x, y, z'
loop_
 _atom_site_type_symbol
 _atom_site_label
 _atom_site_symmetry_multiplicity
 _atom_site_fract_x
 _atom_site_fract_y
 _atom_site_fract_z
 _atom_site_occupancy
  Ca  Ca0  1  0.93378686  0.66918357  0.25000000  1
  Ca  Ca1  1  0.73543144  0.06621336  0.25000000  1
  Ca  Ca2  1  0.33078845  0.26458417  0.25000000  1
  Ca  Ca3  1  0.06621314  0.33081643  0.75000000  1
  Ca  Ca4  1  0.26456856  0.93378664  0.75000000  1
  Ca  Ca5  1  0.66921155  0.73541583  0.75000000  1
  Sc  Sc6  1  0.66666619  0.33332800  0.75000000  1
  Sc  Sc7  1  0.33333381  0.66667200  0.25000000  1
  N  N8  1  0.91817856  0.62392051  0.75000000  1
  N  N9  1  0.70576401  0.08182029  0.75000000  1
  N  N10  1  0.37605396  0.29424511  0.75000000  1
  N  N11  1  0.08182144  0.37607949  0.25000000  1
  N  N12  1  0.29423599  0.91817971  0.25000000  1
  N  N13  1  0.62394604  0.70575489  0.25000000  1
