# generated using pymatgen
data_Ca7(VN3)3
_symmetry_space_group_name_H-M   'P 1'
_cell_length_a   6.07800037
_cell_length_b   9.99816728
_cell_length_c   9.03075486
_cell_angle_alpha   90.00000000
_cell_angle_beta   91.49989114
_cell_angle_gamma   90.00000000
_symmetry_Int_Tables_number   1
_chemical_formula_structural   Ca7(VN3)3
_chemical_formula_sum   'Ca14 V6 N18'
_cell_volume   548.60068909
_cell_formula_units_Z   2
loop_
 _symmetry_equiv_pos_site_id
 _symmetry_equiv_pos_as_xyz
  1  'x, y, z'
loop_
 _atom_site_type_symbol
 _atom_site_label
 _atom_site_symmetry_multiplicity
 _atom_site_fract_x
 _atom_site_fract_y
 _atom_site_fract_z
 _atom_site_occupancy
  Ca  Ca0  1  0.06891343  0.41619650  0.16979093  1
  Ca  Ca1  1  0.93108657  0.91619650  0.83020907  1
  Ca  Ca2  1  0.93108657  0.58380350  0.83020907  1
  Ca  Ca3  1  0.06891343  0.08380350  0.16979093  1
  Ca  Ca4  1  0.24769860  0.91950554  0.51238520  1
  Ca  Ca5  1  0.75230140  0.41950554  0.48761480  1
  Ca  Ca6  1  0.75230140  0.08049446  0.48761480  1
  Ca  Ca7  1  0.24769860  0.58049446  0.51238520  1
  Ca  Ca8  1  0.57773330  0.93145296  0.16190288  1
  Ca  Ca9  1  0.42226670  0.43145296  0.83809712  1
  Ca  Ca10  1  0.42226670  0.06854704  0.83809712  1
  Ca  Ca11  1  0.57773330  0.56854704  0.16190288  1
  Ca  Ca12  1  0.91033143  0.25000000  0.79361871  1
  Ca  Ca13  1  0.08966857  0.75000000  0.20638129  1
  V  V14  1  0.28124407  0.25000000  0.57095637  1
  V  V15  1  0.71875593  0.75000000  0.42904363  1
  V  V16  1  0.45252017  0.25000000  0.28147104  1
  V  V17  1  0.54747983  0.75000000  0.71852896  1
  V  V18  1  0.67345038  0.25000000  0.06401822  1
  V  V19  1  0.32654962  0.75000000  0.93598178  1
  N  N20  1  0.12511428  0.39317354  0.65441732  1
  N  N21  1  0.87488572  0.89317354  0.34558268  1
  N  N22  1  0.87488572  0.60682646  0.34558268  1
  N  N23  1  0.12511428  0.10682646  0.65441732  1
  N  N24  1  0.23142852  0.90438218  0.02200885  1
  N  N25  1  0.76857148  0.40438218  0.97799115  1
  N  N26  1  0.76857148  0.09561782  0.97799115  1
  N  N27  1  0.23142852  0.59561782  0.02200885  1
  N  N28  1  0.36342868  0.39522227  0.37701635  1
  N  N29  1  0.63657132  0.89522227  0.62298365  1
  N  N30  1  0.63657132  0.60477773  0.62298365  1
  N  N31  1  0.36342868  0.10477773  0.37701635  1
  N  N32  1  0.35474968  0.25000000  0.07097769  1
  N  N33  1  0.64525032  0.75000000  0.92902231  1
  N  N34  1  0.54163624  0.25000000  0.66454040  1
  N  N35  1  0.45836376  0.75000000  0.33545960  1
  N  N36  1  0.77448505  0.25000000  0.26895487  1
  N  N37  1  0.22551495  0.75000000  0.73104513  1
