# generated using pymatgen
data_Si6Bi3N11
_symmetry_space_group_name_H-M   'P 1'
_cell_length_a   10.18171630
_cell_length_b   10.18171630
_cell_length_c   4.94538620
_cell_angle_alpha   90.00000000
_cell_angle_beta   90.00000000
_cell_angle_gamma   90.00000000
_symmetry_Int_Tables_number   1
_chemical_formula_structural   Si6Bi3N11
_chemical_formula_sum   'Si12 Bi6 N22'
_cell_volume   512.67506632
_cell_formula_units_Z   2
loop_
 _symmetry_equiv_pos_site_id
 _symmetry_equiv_pos_as_xyz
  1  'x, y, z'
loop_
 _atom_site_type_symbol
 _atom_site_label
 _atom_site_symmetry_multiplicity
 _atom_site_fract_x
 _atom_site_fract_y
 _atom_site_fract_z
 _atom_site_occupancy
  Si  Si0  1  0.41982237  0.29047270  0.53270452  1
  Si  Si1  1  0.58017763  0.70952730  0.53270452  1
  Si  Si2  1  0.08017763  0.79047270  0.53270452  1
  Si  Si3  1  0.91982237  0.20952730  0.53270452  1
  Si  Si4  1  0.29047270  0.58017763  0.53270452  1
  Si  Si5  1  0.70952730  0.41982237  0.53270452  1
  Si  Si6  1  0.79047270  0.91982237  0.53270452  1
  Si  Si7  1  0.20952730  0.08017763  0.53270452  1
  Si  Si8  1  0.88228129  0.38228129  0.04684667  1
  Si  Si9  1  0.11771871  0.61771871  0.04684667  1
  Si  Si10  1  0.61771871  0.88228129  0.04684667  1
  Si  Si11  1  0.38228129  0.11771871  0.04684667  1
  Bi  Bi12  1  0.31723130  0.81723130  0.97446395  1
  Bi  Bi13  1  0.68276870  0.18276870  0.97446395  1
  Bi  Bi14  1  0.18276870  0.31723130  0.97446395  1
  Bi  Bi15  1  0.81723130  0.68276870  0.97446395  1
  Bi  Bi16  1  0.50000000  0.50000000  0.98007241  1
  Bi  Bi17  1  0.00000000  0.00000000  0.98007241  1
  N  N18  1  0.32219940  0.42222344  0.65199485  1
  N  N19  1  0.67780060  0.57777656  0.65199485  1
  N  N20  1  0.17780060  0.92222344  0.65199485  1
  N  N21  1  0.82219940  0.07777656  0.65199485  1
  N  N22  1  0.42222344  0.67780060  0.65199485  1
  N  N23  1  0.57777656  0.32219940  0.65199485  1
  N  N24  1  0.92222344  0.82219940  0.65199485  1
  N  N25  1  0.07777656  0.17780060  0.65199485  1
  N  N26  1  0.42541062  0.26768873  0.18840533  1
  N  N27  1  0.57458938  0.73231127  0.18840533  1
  N  N28  1  0.07458938  0.76768873  0.18840533  1
  N  N29  1  0.92541062  0.23231127  0.18840533  1
  N  N30  1  0.26768873  0.57458938  0.18840533  1
  N  N31  1  0.73231127  0.42541062  0.18840533  1
  N  N32  1  0.76768873  0.92541062  0.18840533  1
  N  N33  1  0.23231127  0.07458938  0.18840533  1
  N  N34  1  0.84295408  0.34295408  0.70352631  1
  N  N35  1  0.15704592  0.65704592  0.70352631  1
  N  N36  1  0.65704592  0.84295408  0.70352631  1
  N  N37  1  0.34295408  0.15704592  0.70352631  1
  N  N38  1  0.50000000  0.00000000  0.04637391  1
  N  N39  1  0.00000000  0.50000000  0.04637391  1
