# generated using pymatgen
data_W2(CN2)3
_symmetry_space_group_name_H-M   'P 1'
_cell_length_a   10.72646129
_cell_length_b   5.08501991
_cell_length_c   30.94938164
_cell_angle_alpha   90.00000588
_cell_angle_beta   164.11864352
_cell_angle_gamma   76.28858617
_symmetry_Int_Tables_number   1
_chemical_formula_structural   W2(CN2)3
_chemical_formula_sum   'W4 C6 N12'
_cell_volume   230.83530145
_cell_formula_units_Z   2
loop_
 _symmetry_equiv_pos_site_id
 _symmetry_equiv_pos_as_xyz
  1  'x, y, z'
loop_
 _atom_site_type_symbol
 _atom_site_label
 _atom_site_symmetry_multiplicity
 _atom_site_fract_x
 _atom_site_fract_y
 _atom_site_fract_z
 _atom_site_occupancy
  W  W0  1  0.00083907  0.99958023  0.16692674  1
  W  W1  1  0.00083907  0.99958070  0.66692674  1
  W  W2  1  0.99916372  0.00043585  0.83309347  1
  W  W3  1  0.99916372  0.00040043  0.33309347  1
  C  C4  1  0.00439531  0.66500996  0.08485382  1
  C  C5  1  0.99998290  0.66549504  0.75000305  1
  C  C6  1  0.99562148  0.66940139  0.41516982  1
  C  C7  1  0.00439531  0.33059373  0.58485382  1
  C  C8  1  0.99562148  0.33497713  0.91516982  1
  C  C9  1  0.99998290  0.33452206  0.25000305  1
  N  N10  1  0.96357367  0.69682875  0.11109017  1
  N  N11  1  0.05404964  0.64285811  0.80786835  1
  N  N12  1  0.98194490  0.66047408  0.45044279  1
  N  N13  1  0.96357367  0.33959759  0.61109017  1
  N  N14  1  0.98194490  0.35758002  0.95044279  1
  N  N15  1  0.05404964  0.30309226  0.30786835  1
  N  N16  1  0.03638857  0.30319559  0.88891605  1
  N  N17  1  0.94592136  0.35719400  0.19214038  1
  N  N18  1  0.01811838  0.33951128  0.54959737  1
  N  N19  1  0.03638857  0.66041584  0.38891605  1
  N  N20  1  0.01811838  0.64237134  0.04959737  1
  N  N21  1  0.94592136  0.69688364  0.69214038  1
