# generated using pymatgen
data_V(PbN)3
_symmetry_space_group_name_H-M   'P 1'
_cell_length_a   9.28041159
_cell_length_b   9.27449665
_cell_length_c   4.58123237
_cell_angle_alpha   90.00000000
_cell_angle_beta   90.00000000
_cell_angle_gamma   119.96613534
_symmetry_Int_Tables_number   1
_chemical_formula_structural   V(PbN)3
_chemical_formula_sum   'V2 Pb6 N6'
_cell_volume   341.60061023
_cell_formula_units_Z   2
loop_
 _symmetry_equiv_pos_site_id
 _symmetry_equiv_pos_as_xyz
  1  'x, y, z'
loop_
 _atom_site_type_symbol
 _atom_site_label
 _atom_site_symmetry_multiplicity
 _atom_site_fract_x
 _atom_site_fract_y
 _atom_site_fract_z
 _atom_site_occupancy
  V  V0  1  0.66668156  0.33331032  0.75000000  1
  V  V1  1  0.33331844  0.66668968  0.25000000  1
  Pb  Pb2  1  0.90538766  0.59534490  0.25000000  1
  Pb  Pb3  1  0.68989998  0.09441637  0.25000000  1
  Pb  Pb4  1  0.40466810  0.30988799  0.25000000  1
  Pb  Pb5  1  0.09461234  0.40465510  0.75000000  1
  Pb  Pb6  1  0.31010002  0.90558363  0.75000000  1
  Pb  Pb7  1  0.59533190  0.69011201  0.75000000  1
  N  N8  1  0.88674224  0.46980459  0.75000000  1
  N  N9  1  0.58298173  0.11305415  0.75000000  1
  N  N10  1  0.53009292  0.41701651  0.75000000  1
  N  N11  1  0.11325776  0.53019541  0.25000000  1
  N  N12  1  0.41701827  0.88694585  0.25000000  1
  N  N13  1  0.46990708  0.58298349  0.25000000  1
