# generated using pymatgen
data_NaMgN
_symmetry_space_group_name_H-M   'P 1'
_cell_length_a   6.63797486
_cell_length_b   3.74510281
_cell_length_c   6.20707184
_cell_angle_alpha   90.00000000
_cell_angle_beta   90.00000000
_cell_angle_gamma   90.00000000
_symmetry_Int_Tables_number   1
_chemical_formula_structural   NaMgN
_chemical_formula_sum   'Na4 Mg4 N4'
_cell_volume   154.30717469
_cell_formula_units_Z   4
loop_
 _symmetry_equiv_pos_site_id
 _symmetry_equiv_pos_as_xyz
  1  'x, y, z'
loop_
 _atom_site_type_symbol
 _atom_site_label
 _atom_site_symmetry_multiplicity
 _atom_site_fract_x
 _atom_site_fract_y
 _atom_site_fract_z
 _atom_site_occupancy
  Na  Na0  1  0.54319073  0.25000000  0.84514796  1
  Na  Na1  1  0.04319073  0.25000000  0.65485204  1
  Na  Na2  1  0.45680927  0.75000000  0.15485204  1
  Na  Na3  1  0.95680927  0.75000000  0.34514796  1
  Mg  Mg4  1  0.64489037  0.25000000  0.41633411  1
  Mg  Mg5  1  0.14489037  0.25000000  0.08366589  1
  Mg  Mg6  1  0.35510963  0.75000000  0.58366589  1
  Mg  Mg7  1  0.85510963  0.75000000  0.91633411  1
  N  N8  1  0.81426610  0.25000000  0.11117740  1
  N  N9  1  0.31426610  0.25000000  0.38882260  1
  N  N10  1  0.18573390  0.75000000  0.88882260  1
  N  N11  1  0.68573390  0.75000000  0.61117740  1
