# generated using pymatgen
data_Na3Re2N5
_symmetry_space_group_name_H-M   'P 1'
_cell_length_a   9.90732356
_cell_length_b   12.60120436
_cell_length_c   8.66305481
_cell_angle_alpha   90.00023735
_cell_angle_beta   64.07405163
_cell_angle_gamma   129.48938258
_symmetry_Int_Tables_number   1
_chemical_formula_structural   Na3Re2N5
_chemical_formula_sum   'Na12 Re8 N20'
_cell_volume   687.80421447
_cell_formula_units_Z   4
loop_
 _symmetry_equiv_pos_site_id
 _symmetry_equiv_pos_as_xyz
  1  'x, y, z'
loop_
 _atom_site_type_symbol
 _atom_site_label
 _atom_site_symmetry_multiplicity
 _atom_site_fract_x
 _atom_site_fract_y
 _atom_site_fract_z
 _atom_site_occupancy
  Na  Na0  1  0.55489723  0.67978155  0.94493954  1
  Na  Na1  1  0.44510745  0.32022250  0.49982993  1
  Na  Na2  1  0.80466214  0.62488183  0.07004812  1
  Na  Na3  1  0.19533796  0.37511475  0.87472208  1
  Na  Na4  1  0.61745126  0.23633335  0.77233733  1
  Na  Na5  1  0.38253691  0.76366612  0.38979196  1
  Na  Na6  1  0.85520842  0.11888145  0.40345240  1
  Na  Na7  1  0.14479618  0.88112176  0.25865451  1
  Na  Na8  1  -0.00000117  0.00000273  0.57469304  1
  Na  Na9  1  0.00000168  0.50000112  0.82468150  1
  Na  Na10  1  0.99999825  0.50000234  0.24867546  1
  Na  Na11  1  0.00000035  0.00000360  0.99865678  1
  Re  Re12  1  0.22276847  0.44141463  0.44071987  1
  Re  Re13  1  0.77721602  0.55857720  0.66348627  1
  Re  Re14  1  0.66006537  0.71864323  0.47207517  1
  Re  Re15  1  0.33994646  0.28136451  0.13211456  1
  Re  Re16  1  0.41003473  0.79251352  0.77461894  1
  Re  Re17  1  0.58996036  0.20748039  0.18466103  1
  Re  Re18  1  0.17498888  0.88246922  0.64213920  1
  Re  Re19  1  0.82500382  0.11751655  0.81714267  1
  N  N20  1  0.27308018  0.56570650  0.27762854  1
  N  N21  1  0.72691480  0.43428513  0.55071342  1
  N  N22  1  0.85832833  0.79261967  0.23500014  1
  N  N23  1  0.14166182  0.20737117  0.09335110  1
  N  N24  1  0.95581816  0.84966068  0.81063937  1
  N  N25  1  0.04419254  0.15034143  0.76644881  1
  N  N26  1  0.74350263  0.39384906  0.16678833  1
  N  N27  1  0.25649186  0.60614828  0.91031475  1
  N  N28  1  0.30301601  0.34070390  0.32871665  1
  N  N29  1  0.69700102  0.65930403  0.63173062  1
  N  N30  1  0.37839902  0.53769007  0.54101933  1
  N  N31  1  0.62161476  0.46230888  0.91942082  1
  N  N32  1  0.24705219  0.81793941  0.77018517  1
  N  N33  1  0.75294206  0.18205705  0.01723597  1
  N  N34  1  0.38883441  0.07089005  0.44927731  1
  N  N35  1  0.61117245  0.92911557  0.83812955  1
  N  N36  1  0.60157846  0.83926347  0.52714821  1
  N  N37  1  0.39842884  0.16075220  0.12873017  1
  N  N38  1  0.07693674  0.73768499  0.53947161  1
  N  N39  1  0.92305291  0.26231608  0.61640977  1
