# generated using pymatgen
data_BN
_symmetry_space_group_name_H-M   'P 1'
_cell_length_a   10.54862882
_cell_length_b   10.80072021
_cell_length_c   11.09889544
_cell_angle_alpha   91.22217680
_cell_angle_beta   88.93207668
_cell_angle_gamma   91.07997929
_symmetry_Int_Tables_number   1
_chemical_formula_structural   BN
_chemical_formula_sum   'B50 N50'
_cell_volume   1263.80549279
_cell_formula_units_Z   50
loop_
 _symmetry_equiv_pos_site_id
 _symmetry_equiv_pos_as_xyz
  1  'x, y, z'
loop_
 _atom_site_type_symbol
 _atom_site_label
 _atom_site_symmetry_multiplicity
 _atom_site_fract_x
 _atom_site_fract_y
 _atom_site_fract_z
 _atom_site_occupancy
  B  B0  1  0.73817071  0.98617140  0.44264697  1
  B  B1  1  0.92438539  0.52216871  0.81921637  1
  B  B2  1  0.32955179  0.57846580  0.58625196  1
  B  B3  1  0.31953603  0.48377274  0.15246075  1
  B  B4  1  0.77797684  0.92155484  0.30481632  1
  B  B5  1  0.56183154  0.34190890  0.43859514  1
  B  B6  1  0.95555130  0.11148160  0.48077723  1
  B  B7  1  0.61500650  0.25967608  0.65221404  1
  B  B8  1  0.15095239  0.24295970  0.50991172  1
  B  B9  1  0.80106506  0.88809726  0.72421187  1
  B  B10  1  0.31652747  0.23346204  0.83731078  1
  B  B11  1  0.50588757  0.92783728  0.53734669  1
  B  B12  1  0.05914037  0.71750713  0.66995894  1
  B  B13  1  0.33080548  0.26875310  0.06170028  1
  B  B14  1  0.37832093  0.31111062  0.27656139  1
  B  B15  1  0.94090544  0.47301445  0.68136858  1
  B  B16  1  0.26708328  0.35719423  0.56215035  1
  B  B17  1  0.34200697  0.84402190  0.88237164  1
  B  B18  1  0.36518550  0.69521656  0.23646706  1
  B  B19  1  0.28972437  0.44770768  0.93264107  1
  B  B20  1  0.30199366  0.63066113  0.80262663  1
  B  B21  1  0.92125654  0.88797088  0.20355085  1
  B  B22  1  0.34254661  0.51700329  0.37650826  1
  B  B23  1  0.32617606  0.10634732  0.41863596  1
  B  B24  1  0.37962577  0.79726551  0.66526348  1
  B  B25  1  0.31307018  0.66495811  0.02028815  1
  B  B26  1  0.00192007  0.27263268  0.27780061  1
  B  B27  1  0.81001025  0.10143789  0.15288936  1
  B  B28  1  0.35085061  0.05636726  0.96823510  1
  B  B29  1  0.93973944  0.73121525  0.83961164  1
  B  B30  1  0.97491701  0.58677672  0.49411062  1
  B  B31  1  0.92772402  0.57168090  0.04236192  1
  B  B32  1  0.40912848  0.90919097  0.32118336  1
  B  B33  1  0.93823645  0.50498445  0.27766616  1
  B  B34  1  0.92278526  0.73522639  0.35945939  1
  B  B35  1  0.04535044  0.78581704  0.44489007  1
  B  B36  1  0.96497857  0.36096836  0.47109133  1
  B  B37  1  0.27215023  0.41363229  0.71203111  1
  B  B38  1  0.65815338  0.43969195  0.29099994  1
  B  B39  1  0.33204910  0.22792528  0.61841309  1
  B  B40  1  0.36568776  0.08952865  0.19364458  1
  B  B41  1  0.10889131  0.87265678  0.29091477  1
  B  B42  1  0.78626306  0.31984490  0.77713452  1
  B  B43  1  0.43084266  0.21554915  0.49078355  1
  B  B44  1  0.75636444  0.98337466  0.60909483  1
  B  B45  1  0.40857254  0.73603211  0.44888295  1
  B  B46  1  0.35869357  0.87664311  0.10353905  1
  B  B47  1  0.37650275  0.02048475  0.73933696  1
  B  B48  1  0.07197197  0.10669281  0.37293007  1
  B  B49  1  0.72759955  0.31615118  0.13927326  1
  N  N50  1  0.45997652  0.85987083  0.42902495  1
  N  N51  1  0.06040443  0.03584075  0.93861191  1
  N  N52  1  0.95534812  0.46782966  0.55378217  1
  N  N53  1  0.61384951  0.64158104  0.99760668  1
  N  N54  1  0.37324048  0.03740687  0.31278423  1
  N  N55  1  0.67185421  0.42066663  0.17104546  1
  N  N56  1  0.33476107  0.43503069  0.27042797  1
  N  N57  1  0.28939568  0.54487388  0.70395266  1
  N  N58  1  0.33262614  0.79583681  0.00184669  1
  N  N59  1  0.84195524  0.80635740  0.28427717  1
  N  N60  1  0.33983551  0.75818182  0.78239533  1
  N  N61  1  0.38223540  0.70209155  0.57021895  1
  N  N62  1  0.35588525  0.97583529  0.86125653  1
  N  N63  1  0.60477506  0.59650164  0.90694289  1
  N  N64  1  0.00450837  0.24035156  0.51908139  1
  N  N65  1  0.64509365  0.43933314  0.40949358  1
  N  N66  1  0.81966776  0.98452406  0.19089398  1
  N  N67  1  0.14975431  0.85753414  0.40559898  1
  N  N68  1  0.45403266  0.28389970  0.37988858  1
  N  N69  1  0.67805446  0.26496416  0.75441295  1
  N  N70  1  0.19607892  0.14050635  0.43499727  1
  N  N71  1  0.28110901  0.36142167  0.82846649  1
  N  N72  1  0.97904030  0.07824627  0.89301755  1
  N  N73  1  0.36367128  0.00878312  0.08755403  1
  N  N74  1  0.92150667  0.60760379  0.91869133  1
  N  N75  1  0.34205714  0.15630574  0.72444929  1
  N  N76  1  0.93833425  0.52952027  0.15009483  1
  N  N77  1  0.06116494  0.74555135  0.78459524  1
  N  N78  1  0.35818676  0.22201544  0.17903214  1
  N  N79  1  0.89091088  0.39422864  0.78365987  1
  N  N80  1  0.32505439  0.61553571  0.13784314  1
  N  N81  1  0.30856366  0.39903722  0.04979551  1
  N  N82  1  0.96007212  0.38114194  0.33628820  1
  N  N83  1  0.28857523  0.58080428  0.92040867  1
  N  N84  1  0.33502389  0.18723936  0.95511289  1
  N  N85  1  0.38322981  0.82643823  0.21916077  1
  N  N86  1  0.83908587  0.80957663  0.80018648  1
  N  N87  1  0.78227922  0.20967701  0.11081649  1
  N  N88  1  0.05224596  0.88745152  0.18615406  1
  N  N89  1  0.93097977  0.60204136  0.37034630  1
  N  N90  1  0.63016936  0.94027179  0.97543686  1
  N  N91  1  0.63928774  0.97034204  0.53732945  1
  N  N92  1  0.55841784  0.25699080  0.54709475  1
  N  N93  1  0.42082399  0.92947562  0.64604000  1
  N  N94  1  0.03879458  0.69448270  0.54918189  1
  N  N95  1  0.83707864  0.05138418  0.52020414  1
  N  N96  1  0.04416977  0.16223413  0.25940096  1
  N  N97  1  0.64852295  0.02010770  0.91518238  1
  N  N98  1  0.37748899  0.64655123  0.35478820  1
  N  N99  1  0.31500863  0.47737450  0.49805808  1
