# generated using pymatgen
data_Cr(C2N3)3
_symmetry_space_group_name_H-M   'P 1'
_cell_length_a   7.61589899
_cell_length_b   13.51150846
_cell_length_c   11.16158666
_cell_angle_alpha   90.00000000
_cell_angle_beta   90.00000000
_cell_angle_gamma   27.49397759
_symmetry_Int_Tables_number   1
_chemical_formula_structural   Cr(C2N3)3
_chemical_formula_sum   'Cr2 C12 N18'
_cell_volume   530.23555526
_cell_formula_units_Z   2
loop_
 _symmetry_equiv_pos_site_id
 _symmetry_equiv_pos_as_xyz
  1  'x, y, z'
loop_
 _atom_site_type_symbol
 _atom_site_label
 _atom_site_symmetry_multiplicity
 _atom_site_fract_x
 _atom_site_fract_y
 _atom_site_fract_z
 _atom_site_occupancy
  Cr  Cr0  1  0.00000000  0.27576966  0.25000000  1
  Cr  Cr1  1  1.00000000  0.72423034  0.75000000  1
  C  C2  1  0.67930696  0.78350649  0.25000000  1
  C  C3  1  0.67930696  0.53718655  0.75000000  1
  C  C4  1  0.32069304  0.21649351  0.75000000  1
  C  C5  1  0.32069304  0.46281345  0.25000000  1
  C  C6  1  0.67882411  0.30735853  0.90859335  1
  C  C7  1  0.67882411  0.01381736  0.09140665  1
  C  C8  1  0.67882411  0.30735853  0.59140665  1
  C  C9  1  0.67882411  0.01381736  0.40859335  1
  C  C10  1  0.32117589  0.69264147  0.09140665  1
  C  C11  1  0.32117589  0.98618264  0.90859335  1
  C  C12  1  0.32117589  0.69264147  0.40859335  1
  C  C13  1  0.32117589  0.98618264  0.59140665  1
  N  N14  1  1.00000000  0.57649943  0.25000000  1
  N  N15  1  0.00000000  0.42350057  0.75000000  1
  N  N16  1  0.37881251  0.97224397  0.25000000  1
  N  N17  1  0.37881251  0.64894352  0.75000000  1
  N  N18  1  0.62118749  0.02775603  0.75000000  1
  N  N19  1  0.62118749  0.35105648  0.25000000  1
  N  N20  1  1.00000000  0.12224194  0.95579412  1
  N  N21  1  0.00000000  0.87775806  0.04420588  1
  N  N22  1  1.00000000  0.12224194  0.54420588  1
  N  N23  1  0.00000000  0.87775806  0.45579412  1
  N  N24  1  0.37697824  0.47845757  0.86989872  1
  N  N25  1  0.37697824  0.14456419  0.13010128  1
  N  N26  1  0.37697824  0.47845757  0.63010128  1
  N  N27  1  0.37697824  0.14456419  0.36989872  1
  N  N28  1  0.62302176  0.52154243  0.13010128  1
  N  N29  1  0.62302176  0.85543581  0.86989872  1
  N  N30  1  0.62302176  0.52154243  0.36989872  1
  N  N31  1  0.62302176  0.85543581  0.63010128  1
