# generated using pymatgen
data_CsCN
_symmetry_space_group_name_H-M   'P 1'
_cell_length_a   10.30169426
_cell_length_b   4.97882199
_cell_length_c   8.49998392
_cell_angle_alpha   31.39305223
_cell_angle_beta   121.12097130
_cell_angle_gamma   116.17967136
_symmetry_Int_Tables_number   1
_chemical_formula_structural   CsCN
_chemical_formula_sum   'Cs2 C2 N2'
_cell_volume   194.41337654
_cell_formula_units_Z   2
loop_
 _symmetry_equiv_pos_site_id
 _symmetry_equiv_pos_as_xyz
  1  'x, y, z'
loop_
 _atom_site_type_symbol
 _atom_site_label
 _atom_site_symmetry_multiplicity
 _atom_site_fract_x
 _atom_site_fract_y
 _atom_site_fract_z
 _atom_site_occupancy
  Cs  Cs0  1  0.45846998  0.08658373  0.92375461  1
  Cs  Cs1  1  0.95846998  0.91341627  0.01033833  1
  C  C2  1  0.66873061  0.12046992  0.37818754  1
  C  C3  1  0.16873061  0.87953008  0.49865646  1
  N  N4  1  0.76979941  0.82590501  0.60557902  1
  N  N5  1  0.26979941  0.17409499  0.43148403  1
