# generated using pymatgen
data_Cr(OF)3
_symmetry_space_group_name_H-M   'P 1'
_cell_length_a   4.98405500
_cell_length_b   5.56441750
_cell_length_c   5.38484334
_cell_angle_alpha   116.78734911
_cell_angle_beta   77.02483202
_cell_angle_gamma   74.68632009
_symmetry_Int_Tables_number   1
_chemical_formula_structural   Cr(OF)3
_chemical_formula_sum   'Cr1 O3 F3'
_cell_volume   117.90033545
_cell_formula_units_Z   1
loop_
 _symmetry_equiv_pos_site_id
 _symmetry_equiv_pos_as_xyz
  1  'x, y, z'
loop_
 _atom_site_type_symbol
 _atom_site_label
 _atom_site_symmetry_multiplicity
 _atom_site_fract_x
 _atom_site_fract_y
 _atom_site_fract_z
 _atom_site_occupancy
  Cr  Cr0  1  0.88965110  0.01150626  0.05225903  1
  O  O1  1  0.31443267  0.28829672  0.77766783  1
  O  O2  1  0.37828095  0.50059428  0.83154089  1
  O  O3  1  0.99208083  0.88506200  0.70267917  1
  F  F4  1  0.11852747  0.13443544  0.23585092  1
  F  F5  1  0.72432825  0.82560613  0.17947044  1
  F  F6  1  0.58269873  0.35449915  0.22053172  1
