# generated using pymatgen
data_ZrO2
_symmetry_space_group_name_H-M   'P 1'
_cell_length_a   10.43735441
_cell_length_b   9.98600171
_cell_length_c   11.27159858
_cell_angle_alpha   91.07085404
_cell_angle_beta   95.43611814
_cell_angle_gamma   93.91097751
_symmetry_Int_Tables_number   1
_chemical_formula_structural   ZrO2
_chemical_formula_sum   'Zr30 O60'
_cell_volume   1166.42835074
_cell_formula_units_Z   30
loop_
 _symmetry_equiv_pos_site_id
 _symmetry_equiv_pos_as_xyz
  1  'x, y, z'
loop_
 _atom_site_type_symbol
 _atom_site_label
 _atom_site_symmetry_multiplicity
 _atom_site_fract_x
 _atom_site_fract_y
 _atom_site_fract_z
 _atom_site_occupancy
  Zr  Zr0  1  0.20248135  0.85592984  0.56625031  1
  Zr  Zr1  1  0.37784862  0.20509200  0.61969707  1
  Zr  Zr2  1  0.08334583  0.78923265  0.28848634  1
  Zr  Zr3  1  0.57491184  0.72423968  0.69239333  1
  Zr  Zr4  1  0.53161814  0.96292354  0.47683836  1
  Zr  Zr5  1  0.03737284  0.37527983  0.92145509  1
  Zr  Zr6  1  0.41129712  0.91745206  0.13575164  1
  Zr  Zr7  1  0.80569192  0.00151337  0.60568133  1
  Zr  Zr8  1  0.80483298  0.21462208  0.07219844  1
  Zr  Zr9  1  0.95938520  0.38073781  0.62186173  1
  Zr  Zr10  1  0.10539470  0.08413131  0.74872854  1
  Zr  Zr11  1  0.28944667  0.51621459  0.10627082  1
  Zr  Zr12  1  0.72550933  0.90734028  0.24925357  1
  Zr  Zr13  1  0.08023874  0.15585019  0.41790631  1
  Zr  Zr14  1  0.62523849  0.02597424  0.85990454  1
  Zr  Zr15  1  0.75707311  0.25918408  0.38490926  1
  Zr  Zr16  1  0.55176966  0.67449845  0.98560161  1
  Zr  Zr17  1  0.41048452  0.29407636  0.91632069  1
  Zr  Zr18  1  0.11353098  0.49743489  0.40599411  1
  Zr  Zr19  1  0.60975335  0.40518826  0.70334008  1
  Zr  Zr20  1  0.95600294  0.70899125  0.71141368  1
  Zr  Zr21  1  0.90220960  0.55570516  0.11058293  1
  Zr  Zr22  1  0.26918836  0.86813933  0.87861770  1
  Zr  Zr23  1  0.25327847  0.54708520  0.75339881  1
  Zr  Zr24  1  0.73611697  0.66162779  0.47112944  1
  Zr  Zr25  1  0.91875333  0.87409262  0.96758584  1
  Zr  Zr26  1  0.18139105  0.12629645  0.09626428  1
  Zr  Zr27  1  0.41640116  0.70089603  0.33345908  1
  Zr  Zr28  1  0.38977038  0.27036125  0.31364139  1
  Zr  Zr29  1  0.62447788  0.48366036  0.22447102  1
  O  O30  1  0.47703305  0.45151906  0.04362895  1
  O  O31  1  0.70945577  0.60384002  0.08445014  1
  O  O32  1  0.87045108  0.71493214  0.86476554  1
  O  O33  1  0.27831336  0.98450678  0.71965733  1
  O  O34  1  0.54869306  0.72897989  0.49209307  1
  O  O35  1  0.71975878  0.46433766  0.39987222  1
  O  O36  1  0.77860570  0.11900863  0.24743193  1
  O  O37  1  0.24857417  0.16358958  0.90854697  1
  O  O38  1  0.00556296  0.19714933  0.01679056  1
  O  O39  1  0.37094187  0.10583262  0.19050324  1
  O  O40  1  0.43967070  0.48471511  0.28959710  1
  O  O41  1  0.61614674  0.81499927  0.86326020  1
  O  O42  1  0.85878625  0.39799294  0.97653812  1
  O  O43  1  0.11534792  0.95449462  0.42637344  1
  O  O44  1  0.06628886  0.93572533  0.87284229  1
  O  O45  1  0.27065624  0.31665605  0.14829197  1
  O  O46  1  0.24436312  0.42981408  0.92045954  1
  O  O47  1  0.79927971  0.04147618  0.78405422  1
  O  O48  1  0.78195970  0.34232186  0.67042972  1
  O  O49  1  0.58263620  0.55693400  0.82933098  1
  O  O50  1  0.12376373  0.69994084  0.45990326  1
  O  O51  1  0.08735531  0.51245553  0.06460925  1
  O  O52  1  0.90224751  0.85798951  0.27536319  1
  O  O53  1  0.22470481  0.92806031  0.04751198  1
  O  O54  1  0.91990761  0.15129132  0.52624141  1
  O  O55  1  0.00581526  0.92733793  0.64214769  1
  O  O56  1  0.62648253  0.20128912  0.98049124  1
  O  O57  1  0.43885461  0.96442231  0.94318833  1
  O  O58  1  0.51354190  0.18740628  0.77042185  1
  O  O59  1  0.42164136  0.68756935  0.14057277  1
  O  O60  1  0.33696171  0.68271043  0.91723698  1
  O  O61  1  0.23007606  0.58446891  0.28184755  1
  O  O62  1  0.58191449  0.94415625  0.65995222  1
  O  O63  1  0.64640256  0.67976706  0.29650436  1
  O  O64  1  0.15659145  0.46984573  0.59209293  1
  O  O65  1  0.02690303  0.51569252  0.77984810  1
  O  O66  1  0.48798954  0.35055332  0.55556804  1
  O  O67  1  0.60108013  0.85565247  0.09731435  1
  O  O68  1  0.21684414  0.31726563  0.39163074  1
  O  O69  1  0.08555819  0.11035082  0.23989482  1
  O  O70  1  0.99130037  0.75662070  0.09595820  1
  O  O71  1  0.38578475  0.66894198  0.67885880  1
  O  O72  1  0.27488226  0.83312874  0.25354040  1
  O  O73  1  0.37545960  0.37641244  0.75164364  1
  O  O74  1  0.57877048  0.27759137  0.28362391  1
  O  O75  1  0.17951524  0.17331263  0.59518218  1
  O  O76  1  0.73364976  0.89860857  0.43993219  1
  O  O77  1  0.79166538  0.00647325  0.01871646  1
  O  O78  1  0.35813494  0.84740019  0.48077156  1
  O  O79  1  0.96416005  0.34923320  0.42097448  1
  O  O80  1  0.91151315  0.58018968  0.56648446  1
  O  O81  1  0.52044864  0.90424529  0.30035701  1
  O  O82  1  0.15918862  0.73825958  0.72748855  1
  O  O83  1  0.66841916  0.13241808  0.49979700  1
  O  O84  1  0.78574533  0.78975424  0.63607918  1
  O  O85  1  0.02348418  0.25757839  0.76277457  1
  O  O86  1  0.97409749  0.58932665  0.28381427  1
  O  O87  1  0.66015791  0.56646426  0.61621899  1
  O  O88  1  0.79512099  0.37918188  0.19248662  1
  O  O89  1  0.39835301  0.11871008  0.45428360  1
