# generated using pymatgen
data_Tl3Co3O8
_symmetry_space_group_name_H-M   'P 1'
_cell_length_a   5.55733216
_cell_length_b   11.39733893
_cell_length_c   5.59875143
_cell_angle_alpha   90.04776575
_cell_angle_beta   87.36585795
_cell_angle_gamma   89.97228921
_symmetry_Int_Tables_number   1
_chemical_formula_structural   Tl3Co3O8
_chemical_formula_sum   'Tl6 Co6 O16'
_cell_volume   354.24331202
_cell_formula_units_Z   2
loop_
 _symmetry_equiv_pos_site_id
 _symmetry_equiv_pos_as_xyz
  1  'x, y, z'
loop_
 _atom_site_type_symbol
 _atom_site_label
 _atom_site_symmetry_multiplicity
 _atom_site_fract_x
 _atom_site_fract_y
 _atom_site_fract_z
 _atom_site_occupancy
  Tl  Tl0  1  0.79059538  0.50040738  0.25342052  1
  Tl  Tl1  1  0.29262209  0.50043401  0.73533259  1
  Tl  Tl2  1  0.70279867  0.17838193  0.26831039  1
  Tl  Tl3  1  0.19661594  0.82212651  0.73903652  1
  Tl  Tl4  1  0.70021240  0.82212017  0.26819368  1
  Tl  Tl5  1  0.19915174  0.17802337  0.73885526  1
  Co  Co6  1  0.69546145  0.00032338  0.80254727  1
  Co  Co7  1  0.74496542  0.67021900  0.75454349  1
  Co  Co8  1  0.74654594  0.32972671  0.75491749  1
  Co  Co9  1  0.19364094  0.00011971  0.20233689  1
  Co  Co10  1  0.25036858  0.32917709  0.24343129  1
  Co  Co11  1  0.24838536  0.67098301  0.24292876  1
  O  O12  1  0.96191718  0.27791753  0.04573360  1
  O  O13  1  0.46462669  0.71909626  0.93666937  1
  O  O14  1  0.46698553  0.28074390  0.93830002  1
  O  O15  1  0.95728266  0.72063737  0.04580804  1
  O  O16  1  0.84377380  -0.00005854  0.12407407  1
  O  O17  1  0.33999435  0.99968184  0.86950648  1
  O  O18  1  0.17855978  0.49997366  0.13817387  1
  O  O19  1  0.67888346  0.50000064  0.86389645  1
  O  O20  1  0.30677115  0.14585820  0.35145230  1
  O  O21  1  0.80447123  0.85353430  0.64576889  1
  O  O22  1  0.30531882  0.85389360  0.35083417  1
  O  O23  1  0.80556097  0.14666471  0.64570731  1
  O  O24  1  0.55922915  0.36542668  0.44410921  1
  O  O25  1  0.04697404  0.63740280  0.57528017  1
  O  O26  1  0.04948890  0.36347231  0.57651859  1
  O  O27  1  0.55520036  0.63371247  0.44431332  1
