# generated using pymatgen
data_KPbN
_symmetry_space_group_name_H-M   'P 1'
_cell_length_a   12.78042189
_cell_length_b   3.58218297
_cell_length_c   6.77484130
_cell_angle_alpha   90.00000000
_cell_angle_beta   90.00000000
_cell_angle_gamma   90.00000000
_symmetry_Int_Tables_number   1
_chemical_formula_structural   KPbN
_chemical_formula_sum   'K4 Pb4 N4'
_cell_volume   310.16449476
_cell_formula_units_Z   4
loop_
 _symmetry_equiv_pos_site_id
 _symmetry_equiv_pos_as_xyz
  1  'x, y, z'
loop_
 _atom_site_type_symbol
 _atom_site_label
 _atom_site_symmetry_multiplicity
 _atom_site_fract_x
 _atom_site_fract_y
 _atom_site_fract_z
 _atom_site_occupancy
  K  K0  1  0.62149852  0.25000000  0.00278353  1
  K  K1  1  0.12149852  0.25000000  0.49721647  1
  K  K2  1  0.37850148  0.75000000  0.99721647  1
  K  K3  1  0.87850148  0.75000000  0.50278353  1
  Pb  Pb4  1  0.60909498  0.25000000  0.51688788  1
  Pb  Pb5  1  0.10909498  0.25000000  0.98311212  1
  Pb  Pb6  1  0.39090502  0.75000000  0.48311212  1
  Pb  Pb7  1  0.89090502  0.75000000  0.01688788  1
  N  N8  1  0.96315964  0.25000000  0.19459618  1
  N  N9  1  0.46315964  0.25000000  0.30540382  1
  N  N10  1  0.03684036  0.75000000  0.80540382  1
  N  N11  1  0.53684036  0.75000000  0.69459618  1
