# generated using pymatgen
data_InSiN2
_symmetry_space_group_name_H-M   'P 1'
_cell_length_a   5.55055561
_cell_length_b   10.32567720
_cell_length_c   13.91025277
_cell_angle_alpha   90.00000000
_cell_angle_beta   90.00000000
_cell_angle_gamma   90.00000000
_symmetry_Int_Tables_number   1
_chemical_formula_structural   InSiN2
_chemical_formula_sum   'In16 Si16 N32'
_cell_volume   797.24173211
_cell_formula_units_Z   16
loop_
 _symmetry_equiv_pos_site_id
 _symmetry_equiv_pos_as_xyz
  1  'x, y, z'
loop_
 _atom_site_type_symbol
 _atom_site_label
 _atom_site_symmetry_multiplicity
 _atom_site_fract_x
 _atom_site_fract_y
 _atom_site_fract_z
 _atom_site_occupancy
  In  In0  1  0.77631229  0.00030283  0.42339806  1
  In  In1  1  0.27631229  0.49969717  0.57660194  1
  In  In2  1  0.22368771  0.50030283  0.07660194  1
  In  In3  1  0.72368771  0.99969717  0.92339806  1
  In  In4  1  0.22368771  0.99969717  0.57660194  1
  In  In5  1  0.72368771  0.50030283  0.42339806  1
  In  In6  1  0.77631229  0.49969717  0.92339806  1
  In  In7  1  0.27631229  0.00030283  0.07660194  1
  In  In8  1  0.88891258  0.23028737  0.32013866  1
  In  In9  1  0.38891258  0.26971263  0.67986134  1
  In  In10  1  0.11108742  0.73028737  0.17986134  1
  In  In11  1  0.61108742  0.76971263  0.82013866  1
  In  In12  1  0.11108742  0.76971263  0.67986134  1
  In  In13  1  0.61108742  0.73028737  0.32013866  1
  In  In14  1  0.88891258  0.26971263  0.82013866  1
  In  In15  1  0.38891258  0.23028737  0.17986134  1
  Si  Si16  1  0.79930411  0.99506382  0.18668443  1
  Si  Si17  1  0.29930411  0.50493618  0.81331557  1
  Si  Si18  1  0.20069589  0.49506382  0.31331557  1
  Si  Si19  1  0.70069589  0.00493618  0.68668443  1
  Si  Si20  1  0.20069589  0.00493618  0.81331557  1
  Si  Si21  1  0.70069589  0.49506382  0.18668443  1
  Si  Si22  1  0.79930411  0.50493618  0.68668443  1
  Si  Si23  1  0.29930411  0.99506382  0.31331557  1
  Si  Si24  1  0.83893476  0.26454290  0.06000441  1
  Si  Si25  1  0.33893476  0.23545710  0.93999559  1
  Si  Si26  1  0.16106524  0.76454290  0.43999559  1
  Si  Si27  1  0.66106524  0.73545710  0.56000441  1
  Si  Si28  1  0.16106524  0.73545710  0.93999559  1
  Si  Si29  1  0.66106524  0.76454290  0.06000441  1
  Si  Si30  1  0.83893476  0.23545710  0.56000441  1
  Si  Si31  1  0.33893476  0.26454290  0.43999559  1
  N  N32  1  0.42453381  0.44017167  0.23324162  1
  N  N33  1  0.92453381  0.05982833  0.76675838  1
  N  N34  1  0.57546619  0.94017167  0.26675838  1
  N  N35  1  0.07546619  0.55982833  0.73324162  1
  N  N36  1  0.57546619  0.55982833  0.76675838  1
  N  N37  1  0.07546619  0.94017167  0.23324162  1
  N  N38  1  0.42453381  0.05982833  0.73324162  1
  N  N39  1  0.92453381  0.44017167  0.26675838  1
  N  N40  1  0.65028609  0.29856501  0.46759122  1
  N  N41  1  0.15028609  0.20143499  0.53240878  1
  N  N42  1  0.34971391  0.79856501  0.03240878  1
  N  N43  1  0.84971391  0.70143499  0.96759122  1
  N  N44  1  0.34971391  0.70143499  0.53240878  1
  N  N45  1  0.84971391  0.79856501  0.46759122  1
  N  N46  1  0.65028609  0.20143499  0.96759122  1
  N  N47  1  0.15028609  0.29856501  0.03240878  1
  N  N48  1  0.71203750  0.41673744  0.07705594  1
  N  N49  1  0.21203750  0.08326256  0.92294406  1
  N  N50  1  0.28796250  0.91673744  0.42294406  1
  N  N51  1  0.78796250  0.58326256  0.57705594  1
  N  N52  1  0.28796250  0.58326256  0.92294406  1
  N  N53  1  0.78796250  0.91673744  0.07705594  1
  N  N54  1  0.71203750  0.08326256  0.57705594  1
  N  N55  1  0.21203750  0.41673744  0.42294406  1
  N  N56  1  0.80435349  0.16629625  0.16591916  1
  N  N57  1  0.30435349  0.33370375  0.83408084  1
  N  N58  1  0.19564651  0.66629625  0.33408084  1
  N  N59  1  0.69564651  0.83370375  0.66591916  1
  N  N60  1  0.19564651  0.83370375  0.83408084  1
  N  N61  1  0.69564651  0.66629625  0.16591916  1
  N  N62  1  0.80435349  0.33370375  0.66591916  1
  N  N63  1  0.30435349  0.16629625  0.33408084  1
