# generated using pymatgen
data_GaMoN3
_symmetry_space_group_name_H-M   'P 1'
_cell_length_a   12.50312477
_cell_length_b   5.88569989
_cell_length_c   9.48343602
_cell_angle_alpha   123.11593537
_cell_angle_beta   108.05698785
_cell_angle_gamma   117.09233447
_symmetry_Int_Tables_number   1
_chemical_formula_structural   GaMoN3
_chemical_formula_sum   'Ga4 Mo4 N12'
_cell_volume   344.57439220
_cell_formula_units_Z   4
loop_
 _symmetry_equiv_pos_site_id
 _symmetry_equiv_pos_as_xyz
  1  'x, y, z'
loop_
 _atom_site_type_symbol
 _atom_site_label
 _atom_site_symmetry_multiplicity
 _atom_site_fract_x
 _atom_site_fract_y
 _atom_site_fract_z
 _atom_site_occupancy
  Ga  Ga0  1  0.67929927  0.83281429  0.46179642  1
  Ga  Ga1  1  0.32070073  0.16718571  0.53820358  1
  Ga  Ga2  1  0.64061980  0.34116326  0.58243640  1
  Ga  Ga3  1  0.35938020  0.65883674  0.41756360  1
  Mo  Mo4  1  0.91033626  0.71568796  0.64150231  1
  Mo  Mo5  1  0.08966374  0.28431204  0.35849769  1
  Mo  Mo6  1  0.66886189  0.72493064  0.06081048  1
  Mo  Mo7  1  0.33113811  0.27506936  0.93918952  1
  N  N8  1  0.74333774  0.70028217  0.57948160  1
  N  N9  1  0.25666226  0.29971783  0.42051840  1
  N  N10  1  0.81549608  0.30313518  0.32483556  1
  N  N11  1  0.18450392  0.69686482  0.67516444  1
  N  N12  1  0.85312287  0.45348494  0.69926608  1
  N  N13  1  0.14687713  0.54651506  0.30073392  1
  N  N14  1  0.52978769  0.31271375  0.68153865  1
  N  N15  1  0.47021231  0.68728625  0.31846135  1
  N  N16  1  0.84286371  0.77437425  0.11925794  1
  N  N17  1  0.15713629  0.22562575  0.88074206  1
  N  N18  1  0.41037662  0.47483951  0.85826402  1
  N  N19  1  0.58962338  0.52516049  0.14173598  1
