# generated using pymatgen
data_Mg7SiN6
_symmetry_space_group_name_H-M   'P 1'
_cell_length_a   5.49580120
_cell_length_b   8.19537974
_cell_length_c   8.19537974
_cell_angle_alpha   77.77185237
_cell_angle_beta   70.40929408
_cell_angle_gamma   70.40929408
_symmetry_Int_Tables_number   1
_chemical_formula_structural   Mg7SiN6
_chemical_formula_sum   'Mg14 Si2 N12'
_cell_volume   325.56265650
_cell_formula_units_Z   2
loop_
 _symmetry_equiv_pos_site_id
 _symmetry_equiv_pos_as_xyz
  1  'x, y, z'
loop_
 _atom_site_type_symbol
 _atom_site_label
 _atom_site_symmetry_multiplicity
 _atom_site_fract_x
 _atom_site_fract_y
 _atom_site_fract_z
 _atom_site_occupancy
  Mg  Mg0  1  0.28134340  0.95788681  0.04211319  1
  Mg  Mg1  1  0.71865660  0.04211319  0.95788681  1
  Mg  Mg2  1  0.21865660  0.45788681  0.54211319  1
  Mg  Mg3  1  0.78134340  0.54211319  0.45788681  1
  Mg  Mg4  1  0.72514160  0.15112473  0.60891722  1
  Mg  Mg5  1  0.51481744  0.60891722  0.15112473  1
  Mg  Mg6  1  0.77485840  0.89108278  0.34887527  1
  Mg  Mg7  1  0.98518256  0.34887527  0.89108278  1
  Mg  Mg8  1  0.27485840  0.84887527  0.39108278  1
  Mg  Mg9  1  0.48518256  0.39108278  0.84887527  1
  Mg  Mg10  1  0.22514160  0.10891722  0.65112473  1
  Mg  Mg11  1  0.01481744  0.65112473  0.10891722  1
  Mg  Mg12  1  0.25000000  0.25000000  0.25000000  1
  Mg  Mg13  1  0.75000000  0.75000000  0.75000000  1
  Si  Si14  1  0.75000000  0.25000000  0.25000000  1
  Si  Si15  1  0.25000000  0.75000000  0.75000000  1
  N  N16  1  0.02173216  0.06678187  0.27717274  1
  N  N17  1  0.63431323  0.27717274  0.06678187  1
  N  N18  1  0.47826784  0.22282726  0.43321813  1
  N  N19  1  0.86568677  0.43321813  0.22282726  1
  N  N20  1  0.97826784  0.93321813  0.72282726  1
  N  N21  1  0.36568677  0.72282726  0.93321813  1
  N  N22  1  0.52173216  0.77717274  0.56678187  1
  N  N23  1  0.13431323  0.56678187  0.77717274  1
  N  N24  1  0.87083884  0.34454198  0.65545802  1
  N  N25  1  0.12916116  0.65545802  0.34454198  1
  N  N26  1  0.62916116  0.84454198  0.15545802  1
  N  N27  1  0.37083884  0.15545802  0.84454198  1
