# generated using pymatgen
data_VPb2N3
_symmetry_space_group_name_H-M   'P 1'
_cell_length_a   8.13496178
_cell_length_b   5.75467354
_cell_length_c   5.32021439
_cell_angle_alpha   90.00000000
_cell_angle_beta   90.00000000
_cell_angle_gamma   110.71379810
_symmetry_Int_Tables_number   1
_chemical_formula_structural   VPb2N3
_chemical_formula_sum   'V2 Pb4 N6'
_cell_volume   232.96121111
_cell_formula_units_Z   2
loop_
 _symmetry_equiv_pos_site_id
 _symmetry_equiv_pos_as_xyz
  1  'x, y, z'
loop_
 _atom_site_type_symbol
 _atom_site_label
 _atom_site_symmetry_multiplicity
 _atom_site_fract_x
 _atom_site_fract_y
 _atom_site_fract_z
 _atom_site_occupancy
  V  V0  1  0.00000000  0.67407219  0.48719026  1
  V  V1  1  1.00000000  0.32592781  0.98719026  1
  Pb  Pb2  1  0.27657681  0.34913067  0.46891585  1
  Pb  Pb3  1  0.72342319  0.07255387  0.46891585  1
  Pb  Pb4  1  0.72342319  0.65086933  0.96891585  1
  Pb  Pb5  1  0.27657681  0.92744613  0.96891585  1
  N  N6  1  0.19322202  0.27109836  0.90331116  1
  N  N7  1  0.80677798  0.07787634  0.90331116  1
  N  N8  1  0.80677798  0.72890164  0.40331116  1
  N  N9  1  0.19322202  0.92212366  0.40331116  1
  N  N10  1  0.00000000  0.62876075  0.84035671  1
  N  N11  1  1.00000000  0.37123925  0.34035671  1
