# generated using pymatgen
data_Al2O3
_symmetry_space_group_name_H-M   'P 1'
_cell_length_a   10.22490604
_cell_length_b   10.65380567
_cell_length_c   9.91364604
_cell_angle_alpha   90.93939712
_cell_angle_beta   91.27180953
_cell_angle_gamma   92.12404618
_symmetry_Int_Tables_number   1
_chemical_formula_structural   Al2O3
_chemical_formula_sum   'Al40 O60'
_cell_volume   1078.76663997
_cell_formula_units_Z   20
loop_
 _symmetry_equiv_pos_site_id
 _symmetry_equiv_pos_as_xyz
  1  'x, y, z'
loop_
 _atom_site_type_symbol
 _atom_site_label
 _atom_site_symmetry_multiplicity
 _atom_site_fract_x
 _atom_site_fract_y
 _atom_site_fract_z
 _atom_site_occupancy
  Al  Al0  1  0.95331021  0.35930952  0.41656907  1
  Al  Al1  1  0.82660389  0.11345311  0.73281656  1
  Al  Al2  1  0.16665407  0.80019390  0.57835582  1
  Al  Al3  1  0.13230286  0.43287223  0.86423901  1
  Al  Al4  1  0.65115978  0.88634111  0.54471091  1
  Al  Al5  1  0.08992319  0.23569235  0.64665568  1
  Al  Al6  1  0.35255703  0.15899582  0.51070623  1
  Al  Al7  1  0.41128046  0.93197659  0.73988664  1
  Al  Al8  1  0.10559450  0.35894053  0.16717573  1
  Al  Al9  1  0.82542839  0.58641524  0.86842142  1
  Al  Al10  1  0.49867417  0.62054819  0.05741640  1
  Al  Al11  1  0.58940821  0.11294803  0.02194340  1
  Al  Al12  1  0.69392031  0.16588274  0.45761782  1
  Al  Al13  1  0.61360642  0.80632629  0.86092328  1
  Al  Al14  1  0.24334992  0.64840289  0.06359394  1
  Al  Al15  1  0.84697596  0.27271913  0.98516358  1
  Al  Al16  1  0.33519646  0.18135777  0.82035567  1
  Al  Al17  1  0.08504085  0.84454181  0.13806974  1
  Al  Al18  1  0.35126333  0.94756281  0.03248223  1
  Al  Al19  1  0.33927171  0.64687739  0.75506815  1
  Al  Al20  1  0.52038234  0.36215882  0.50820700  1
  Al  Al21  1  0.10695380  0.63519859  0.36284134  1
  Al  Al22  1  0.77119013  0.67361440  0.36573394  1
  Al  Al23  1  0.00602402  0.09583282  0.23278194  1
  Al  Al24  1  0.35374172  0.91537437  0.34860663  1
  Al  Al25  1  0.03652013  0.02386861  0.51580191  1
  Al  Al26  1  0.82966325  0.00034751  0.00076306  1
  Al  Al27  1  0.59267685  0.36737254  0.95235951  1
  Al  Al28  1  0.77821040  0.36164926  0.69033392  1
  Al  Al29  1  0.60467191  0.60854227  0.63390760  1
  Al  Al30  1  0.36822574  0.48463889  0.28788456  1
  Al  Al31  1  0.90712897  0.86790200  0.75269586  1
  Al  Al32  1  0.60539939  0.92054943  0.26888133  1
  Al  Al33  1  0.98323773  0.56989233  0.65574517  1
  Al  Al34  1  0.09941995  0.08717957  0.97158320  1
  Al  Al35  1  0.66410014  0.38881901  0.24046504  1
  Al  Al36  1  0.29958198  0.18129652  0.18904792  1
  Al  Al37  1  0.91675247  0.54609091  0.18113400  1
  Al  Al38  1  0.77343499  0.77656985  0.08799205  1
  Al  Al39  1  0.25099226  0.46466290  0.56292108  1
  O  O40  1  0.16575516  0.22640058  0.06333561  1
  O  O41  1  0.43269602  0.59031515  0.62472696  1
  O  O42  1  0.90898476  0.69901396  0.74577310  1
  O  O43  1  0.66385073  0.64507134  0.80036192  1
  O  O44  1  0.97844135  0.49799536  0.81885071  1
  O  O45  1  0.87793957  0.45304810  0.56803588  1
  O  O46  1  0.03328643  0.24716115  0.30193984  1
  O  O47  1  0.18276778  0.12150466  0.55839218  1
  O  O48  1  0.67819009  0.00020926  0.12038513  1
  O  O49  1  0.70456525  0.78392528  0.25630864  1
  O  O50  1  0.47880163  0.26095660  0.88184316  1
  O  O51  1  0.39828878  0.08635029  0.67736148  1
  O  O52  1  0.94809712  0.14390156  0.59519466  1
  O  O53  1  0.09670563  0.37164572  0.54688689  1
  O  O54  1  0.78546841  0.95253574  0.66052389  1
  O  O55  1  0.28457708  0.34304569  0.24024194  1
  O  O56  1  0.28985905  0.80367637  0.70885610  1
  O  O57  1  0.42591218  0.11589027  0.09123716  1
  O  O58  1  0.73644598  0.41756204  0.86569074  1
  O  O59  1  0.26272040  0.54795402  0.40798782  1
  O  O60  1  0.31809811  0.08492668  0.34338700  1
  O  O61  1  0.04012731  0.89462225  0.62772628  1
  O  O62  1  0.13859205  0.01068432  0.13930742  1
  O  O63  1  0.90701300  0.26063568  0.80966965  1
  O  O64  1  0.72803358  0.11374658  0.90024842  1
  O  O65  1  0.50273564  0.88688483  0.43254269  1
  O  O66  1  0.69107341  0.71092069  0.51794922  1
  O  O67  1  0.09568578  0.64701506  0.55071142  1
  O  O68  1  0.21891827  0.82775569  0.41330245  1
  O  O69  1  0.48138573  0.93260477  0.90946537  1
  O  O70  1  0.70236402  0.00695305  0.41065635  1
  O  O71  1  0.37746470  0.61566721  0.18100205  1
  O  O72  1  0.56274353  0.47338837  0.08111363  1
  O  O73  1  0.77733705  0.85791869  0.90404531  1
  O  O74  1  0.93744244  0.68433136  0.33836409  1
  O  O75  1  0.76218102  0.52635712  0.26860681  1
  O  O76  1  0.91953985  0.87981337  0.10452575  1
  O  O77  1  0.52490066  0.43395483  0.34573223  1
  O  O78  1  0.18687705  0.27698402  0.79742597  1
  O  O79  1  0.60616640  0.74304381  0.02821270  1
  O  O80  1  0.17465998  0.48769765  0.02898050  1
  O  O81  1  0.93631493  0.39200110  0.08498400  1
  O  O82  1  0.52502611  0.20210610  0.45616745  1
  O  O83  1  0.76972115  0.29300781  0.36290646  1
  O  O84  1  0.71805975  0.20952521  0.63299756  1
  O  O85  1  0.11659093  0.68428439  0.18585939  1
  O  O86  1  0.42904939  0.89428515  0.19004376  1
  O  O87  1  0.98823524  0.98605446  0.35450821  1
  O  O88  1  0.03414532  0.47628062  0.30065227  1
  O  O89  1  0.96831343  0.00897341  0.86097300  1
  O  O90  1  0.21820547  0.52239870  0.73612227  1
  O  O91  1  0.22231640  0.81637170  0.02163899  1
  O  O92  1  0.67644749  0.27260763  0.08473909  1
  O  O93  1  0.55226298  0.84682459  0.69310218  1
  O  O94  1  0.25567066  0.04623727  0.89807873  1
  O  O95  1  0.85361433  0.63418879  0.04016050  1
  O  O96  1  0.37765320  0.63999747  0.92687126  1
  O  O97  1  0.63349226  0.44299927  0.61552311  1
  O  O98  1  0.35601847  0.33260826  0.55848621  1
  O  O99  1  0.92514862  0.13462885  0.07280010  1
