# generated using pymatgen
data_Si7PdN10
_symmetry_space_group_name_H-M   'P 1'
_cell_length_a   6.76013948
_cell_length_b   6.92741191
_cell_length_c   9.74329965
_cell_angle_alpha   90.00000000
_cell_angle_beta   104.01987318
_cell_angle_gamma   90.00000000
_symmetry_Int_Tables_number   1
_chemical_formula_structural   Si7PdN10
_chemical_formula_sum   'Si14 Pd2 N20'
_cell_volume   442.68954050
_cell_formula_units_Z   2
loop_
 _symmetry_equiv_pos_site_id
 _symmetry_equiv_pos_as_xyz
  1  'x, y, z'
loop_
 _atom_site_type_symbol
 _atom_site_label
 _atom_site_symmetry_multiplicity
 _atom_site_fract_x
 _atom_site_fract_y
 _atom_site_fract_z
 _atom_site_occupancy
  Si  Si0  1  0.54218627  0.98173335  0.82393374  1
  Si  Si1  1  0.54218627  0.01826665  0.32393374  1
  Si  Si2  1  0.35541264  0.02001292  0.02183093  1
  Si  Si3  1  0.35541264  0.97998708  0.52183093  1
  Si  Si4  1  0.11444669  0.40340466  0.07404630  1
  Si  Si5  1  0.11444669  0.59659534  0.57404630  1
  Si  Si6  1  0.65450962  0.36353682  0.98722120  1
  Si  Si7  1  0.65450962  0.63646318  0.48722120  1
  Si  Si8  1  0.84592271  0.61881474  0.81009498  1
  Si  Si9  1  0.84592271  0.38118526  0.31009498  1
  Si  Si10  1  0.29742112  0.62100932  0.88145608  1
  Si  Si11  1  0.29742112  0.37899068  0.38145608  1
  Si  Si12  1  0.48367905  0.36782926  0.68562963  1
  Si  Si13  1  0.48367905  0.63217074  0.18562963  1
  Pd  Pd14  1  0.97922878  0.90386241  0.68901160  1
  Pd  Pd15  1  0.97922878  0.09613759  0.18901160  1
  N  N16  1  0.74801323  0.84497605  0.81348544  1
  N  N17  1  0.74801323  0.15502395  0.31348544  1
  N  N18  1  0.55075334  0.14002361  0.96649279  1
  N  N19  1  0.55075334  0.85997639  0.46649279  1
  N  N20  1  0.32798361  0.86780138  0.87096744  1
  N  N21  1  0.32798361  0.13219862  0.37096744  1
  N  N22  1  0.16153599  0.16395820  0.04558832  1
  N  N23  1  0.16153599  0.83604180  0.54558832  1
  N  N24  1  0.28595040  0.50261558  0.72348148  1
  N  N25  1  0.28595040  0.49738442  0.22348148  1
  N  N26  1  0.45082790  0.12036371  0.67163099  1
  N  N27  1  0.45082790  0.87963629  0.17163099  1
  N  N28  1  0.87808308  0.38136393  0.12673927  1
  N  N29  1  0.87808308  0.61863607  0.62673927  1
  N  N30  1  0.07527734  0.56852512  0.93441370  1
  N  N31  1  0.07527734  0.43147488  0.43441370  1
  N  N32  1  0.69706516  0.41938956  0.82194662  1
  N  N33  1  0.69706516  0.58061044  0.32194662  1
  N  N34  1  0.49400208  0.53991587  0.02132949  1
  N  N35  1  0.49400208  0.46008413  0.52132949  1
