# generated using pymatgen
data_Mn5(Si2O7)2
_symmetry_space_group_name_H-M   'P 1'
_cell_length_a   7.81261651
_cell_length_b   8.97145549
_cell_length_c   9.57995358
_cell_angle_alpha   103.64982400
_cell_angle_beta   80.59748940
_cell_angle_gamma   75.94975653
_symmetry_Int_Tables_number   1
_chemical_formula_structural   Mn5(Si2O7)2
_chemical_formula_sum   'Mn10 Si8 O28'
_cell_volume   615.39338372
_cell_formula_units_Z   2
loop_
 _symmetry_equiv_pos_site_id
 _symmetry_equiv_pos_as_xyz
  1  'x, y, z'
loop_
 _atom_site_type_symbol
 _atom_site_label
 _atom_site_symmetry_multiplicity
 _atom_site_fract_x
 _atom_site_fract_y
 _atom_site_fract_z
 _atom_site_occupancy
  Mn  Mn0  1  0.51236577  0.48982992  0.48829660  1
  Mn  Mn1  1  0.98707439  0.01039767  0.01159323  1
  Mn  Mn2  1  0.00648674  0.44562439  0.64996807  1
  Mn  Mn3  1  0.47489855  0.94266836  0.15489004  1
  Mn  Mn4  1  0.02504082  0.55780241  0.34567585  1
  Mn  Mn5  1  0.49408085  0.05390302  0.84968677  1
  Mn  Mn6  1  0.88367988  0.67840464  0.98152911  1
  Mn  Mn7  1  0.38628979  0.17443778  0.47447182  1
  Mn  Mn8  1  0.11430275  0.32593037  0.02521493  1
  Mn  Mn9  1  0.61553904  0.82155923  0.51895887  1
  Si  Si10  1  0.55275194  0.66987875  0.81230112  1
  Si  Si11  1  0.03695360  0.18009564  0.33304978  1
  Si  Si12  1  0.46327985  0.32002638  0.16674944  1
  Si  Si13  1  0.94780350  0.82965650  0.68770619  1
  Si  Si14  1  0.67111746  0.55995787  0.17992400  1
  Si  Si15  1  0.16115349  0.06726019  0.69910247  1
  Si  Si16  1  0.33876725  0.43305853  0.80077800  1
  Si  Si17  1  0.82855774  0.93998066  0.32035163  1
  O  O18  1  0.47394201  0.86226732  0.91077763  1
  O  O19  1  0.97867965  0.36964450  0.43856403  1
  O  O20  1  0.52137786  0.13044712  0.06141805  1
  O  O21  1  0.02624816  0.63757808  0.58850804  1
  O  O22  1  0.60718499  0.70993684  0.11520298  1
  O  O23  1  0.11651303  0.21920318  0.63033477  1
  O  O24  1  0.38423766  0.28060747  0.86884215  1
  O  O25  1  0.88992622  0.79041085  0.38625701  1
  O  O26  1  0.61223566  0.40263255  0.10128417  1
  O  O27  1  0.08829928  0.92074507  0.62108344  1
  O  O28  1  0.41179178  0.57926802  0.87900078  1
  O  O29  1  0.88822646  0.09707560  0.39849373  1
  O  O30  1  0.76358504  0.58181659  0.80579398  1
  O  O31  1  0.24678338  0.08256177  0.31913936  1
  O  O32  1  0.25324579  0.41749627  0.18088878  1
  O  O33  1  0.73687167  0.91806092  0.69466765  1
  O  O34  1  0.58642133  0.60835563  0.36087604  1
  O  O35  1  0.07508098  0.12318090  0.87941970  1
  O  O36  1  0.42360100  0.37872248  0.62039237  1
  O  O37  1  0.91326230  0.89040614  0.13920449  1
  O  O38  1  0.89390951  0.51966338  0.14303332  1
  O  O39  1  0.38570773  0.00708190  0.66761739  1
  O  O40  1  0.11426633  0.49252514  0.83258507  1
  O  O41  1  0.60579129  0.98147624  0.35695285  1
  O  O42  1  0.01677904  0.17854320  0.16220431  1
  O  O43  1  0.53538603  0.65708823  0.63933027  1
  O  O44  1  0.96641024  0.84065023  0.86033067  1
  O  O45  1  0.48409220  0.32208210  0.33754905  1
