# generated using pymatgen
data_TiO2
_symmetry_space_group_name_H-M   'P 1'
_cell_length_a   10.26961624
_cell_length_b   10.58039410
_cell_length_c   10.56895485
_cell_angle_alpha   90.47826724
_cell_angle_beta   89.63335264
_cell_angle_gamma   88.99971096
_symmetry_Int_Tables_number   1
_chemical_formula_structural   TiO2
_chemical_formula_sum   'Ti30 O60'
_cell_volume   1148.14695376
_cell_formula_units_Z   30
loop_
 _symmetry_equiv_pos_site_id
 _symmetry_equiv_pos_as_xyz
  1  'x, y, z'
loop_
 _atom_site_type_symbol
 _atom_site_label
 _atom_site_symmetry_multiplicity
 _atom_site_fract_x
 _atom_site_fract_y
 _atom_site_fract_z
 _atom_site_occupancy
  Ti  Ti0  1  0.20267225  0.34491818  0.36639582  1
  Ti  Ti1  1  0.82301559  0.07104503  0.55917871  1
  Ti  Ti2  1  0.52972484  0.77640836  0.41836207  1
  Ti  Ti3  1  0.75683119  0.68276070  0.17853715  1
  Ti  Ti4  1  0.34681877  0.37366929  0.10638764  1
  Ti  Ti5  1  0.44647947  0.01863196  0.21096213  1
  Ti  Ti6  1  0.02760733  0.59142655  0.40264403  1
  Ti  Ti7  1  0.69338794  0.52221128  0.89652601  1
  Ti  Ti8  1  0.77376419  0.58133538  0.57661606  1
  Ti  Ti9  1  0.64104192  0.34987501  0.65132406  1
  Ti  Ti10  1  0.22912356  0.08703488  0.93844151  1
  Ti  Ti11  1  0.96283388  0.31773347  0.57665051  1
  Ti  Ti12  1  0.14698522  0.42420829  0.83648505  1
  Ti  Ti13  1  0.30185046  0.87122166  0.67534086  1
  Ti  Ti14  1  0.93440860  0.25700591  0.02283457  1
  Ti  Ti15  1  0.43227544  0.71398784  0.03179073  1
  Ti  Ti16  1  0.82198368  0.32675493  0.32843037  1
  Ti  Ti17  1  0.29669340  0.25892705  0.65757941  1
  Ti  Ti18  1  0.54515097  0.08903401  0.70095905  1
  Ti  Ti19  1  0.51694664  0.49117772  0.35076298  1
  Ti  Ti20  1  0.67895751  0.94620451  0.03722174  1
  Ti  Ti21  1  0.01224530  0.85025539  0.54714038  1
  Ti  Ti22  1  0.89258775  0.98222305  0.84990695  1
  Ti  Ti23  1  0.31121041  0.03523075  0.45336574  1
  Ti  Ti24  1  0.13043149  0.76132924  0.87815762  1
  Ti  Ti25  1  0.63584069  0.21684606  0.99100040  1
  Ti  Ti26  1  0.19403816  0.79806794  0.23675104  1
  Ti  Ti27  1  0.31642487  0.55550517  0.57189281  1
  Ti  Ti28  1  0.99615053  0.58113183  0.07248560  1
  Ti  Ti29  1  0.65657870  0.82139574  0.71068495  1
  O  O30  1  0.23471965  0.94255611  0.83859333  1
  O  O31  1  0.09828603  0.75979906  0.38017613  1
  O  O32  1  0.52644885  0.86182201  0.03054177  1
  O  O33  1  0.79031026  0.21668354  0.45696138  1
  O  O34  1  0.30537030  0.71878961  0.91965740  1
  O  O35  1  0.48380425  0.25644608  0.63386186  1
  O  O36  1  0.61042135  0.08896590  0.12446068  1
  O  O37  1  0.25084414  0.43723554  0.97911382  1
  O  O38  1  0.81982591  0.60700594  0.02263597  1
  O  O39  1  0.43976751  0.11201097  0.35283318  1
  O  O40  1  0.49909129  0.87283039  0.75147591  1
  O  O41  1  0.31390486  0.44065437  0.70741400  1
  O  O42  1  0.58825748  0.42669899  0.79517460  1
  O  O43  1  0.03058101  0.29671765  0.40897675  1
  O  O44  1  0.62962425  0.64376754  0.29618231  1
  O  O45  1  0.06862091  0.13352482  0.00617768  1
  O  O46  1  0.82440940  0.42209114  0.66249232  1
  O  O47  1  0.99680710  0.87854162  0.92900473  1
  O  O48  1  0.91336903  0.95935170  0.45144517  1
  O  O49  1  0.73745747  0.89076312  0.86838822  1
  O  O50  1  0.36283190  0.41453420  0.44236650  1
  O  O51  1  0.24197048  0.19926131  0.49461193  1
  O  O52  1  0.17486311  0.93654213  0.54916022  1
  O  O53  1  0.10284857  0.73663760  0.10081349  1
  O  O54  1  0.70675414  0.18746545  0.68701692  1
  O  O55  1  0.06488931  0.58978566  0.89236057  1
  O  O56  1  0.53912026  0.88831258  0.28527908  1
  O  O57  1  0.11273191  0.34621829  0.65897990  1
  O  O58  1  0.25277542  0.27532167  0.21871316  1
  O  O59  1  0.56750281  0.59715585  0.99233079  1
  O  O60  1  0.99760949  0.41859220  0.09928343  1
  O  O61  1  0.81019002  0.10568637  0.96327391  1
  O  O62  1  0.00869934  0.33536529  0.87633520  1
  O  O63  1  0.34586690  0.70352672  0.65735693  1
  O  O64  1  0.11570322  0.77791987  0.71028160  1
  O  O65  1  0.91544435  0.69297783  0.53932796  1
  O  O66  1  0.75336099  0.35342906  0.96894322  1
  O  O67  1  0.86219885  0.23896272  0.18600333  1
  O  O68  1  0.25691647  0.22205860  0.82615358  1
  O  O69  1  0.77436613  0.85116163  0.14448270  1
  O  O70  1  0.65683718  0.38553786  0.29727705  1
  O  O71  1  0.36484911  0.06300678  0.64729771  1
  O  O72  1  0.91091480  0.63645256  0.24331783  1
  O  O73  1  0.62131723  0.48455967  0.53003362  1
  O  O74  1  0.87811420  0.47919134  0.43769501  1
  O  O75  1  0.55725849  0.11278835  0.87089387  1
  O  O76  1  0.90307204  0.92998370  0.68305102  1
  O  O77  1  0.33988527  0.06225102  0.06635285  1
  O  O78  1  0.72771679  0.64189229  0.75504214  1
  O  O79  1  0.42495480  0.49129795  0.20244765  1
  O  O80  1  0.41402139  0.88614255  0.50430106  1
  O  O81  1  0.65584602  0.73742256  0.54583142  1
  O  O82  1  0.14547408  0.56003891  0.53609354  1
  O  O83  1  0.34915285  0.72846748  0.18523092  1
  O  O84  1  0.49061927  0.30002334  0.03796102  1
  O  O85  1  0.66548280  0.97693347  0.61011821  1
  O  O86  1  0.95252442  0.15841766  0.64201995  1
  O  O87  1  0.26410261  0.95545100  0.28847860  1
  O  O88  1  0.42322565  0.63827792  0.43113513  1
  O  O89  1  0.13857953  0.50217832  0.29860481  1
