# generated using pymatgen
data_BN
_symmetry_space_group_name_H-M   'P 1'
_cell_length_a   10.25369078
_cell_length_b   10.78007594
_cell_length_c   11.32404862
_cell_angle_alpha   92.21547019
_cell_angle_beta   86.42214449
_cell_angle_gamma   88.74884003
_symmetry_Int_Tables_number   1
_chemical_formula_structural   BN
_chemical_formula_sum   'B50 N50'
_cell_volume   1247.96760712
_cell_formula_units_Z   50
loop_
 _symmetry_equiv_pos_site_id
 _symmetry_equiv_pos_as_xyz
  1  'x, y, z'
loop_
 _atom_site_type_symbol
 _atom_site_label
 _atom_site_symmetry_multiplicity
 _atom_site_fract_x
 _atom_site_fract_y
 _atom_site_fract_z
 _atom_site_occupancy
  B  B0  1  0.73429989  0.01298129  0.44293243  1
  B  B1  1  0.96958070  0.46288355  0.93361742  1
  B  B2  1  0.34095388  0.59753666  0.58576750  1
  B  B3  1  0.32630289  0.50646209  0.14971201  1
  B  B4  1  0.79339059  0.95168456  0.29768956  1
  B  B5  1  0.63624228  0.30501056  0.37207938  1
  B  B6  1  0.87539103  0.19735145  0.54355536  1
  B  B7  1  0.61404125  0.39436878  0.67909815  1
  B  B8  1  0.07201597  0.29055345  0.63469836  1
  B  B9  1  0.69015772  0.04283165  0.75985403  1
  B  B10  1  0.29853463  0.25556591  0.83590320  1
  B  B11  1  0.47342296  0.95887764  0.52826745  1
  B  B12  1  0.00599400  0.77015105  0.76795133  1
  B  B13  1  0.33776795  0.29237420  0.05468425  1
  B  B14  1  0.31985413  0.32518291  0.27614830  1
  B  B15  1  0.06332565  0.44051619  0.69935202  1
  B  B16  1  0.19821842  0.06300774  0.52250354  1
  B  B17  1  0.36027655  0.86335141  0.88002457  1
  B  B18  1  0.35165520  0.72180355  0.23241782  1
  B  B19  1  0.30239687  0.47047844  0.93107889  1
  B  B20  1  0.31992948  0.65011453  0.79875211  1
  B  B21  1  0.99262743  0.74302589  0.22754688  1
  B  B22  1  0.34273061  0.54403101  0.36963206  1
  B  B23  1  0.27843129  0.13040351  0.39801989  1
  B  B24  1  0.37005581  0.81976620  0.66113662  1
  B  B25  1  0.33193378  0.68559009  0.01565029  1
  B  B26  1  0.88351783  0.33286387  0.33723754  1
  B  B27  1  0.82648886  0.97975897  0.15375754  1
  B  B28  1  0.36074480  0.07986034  0.96451274  1
  B  B29  1  0.95321516  0.80502318  0.00313446  1
  B  B30  1  0.97132010  0.64414807  0.57566522  1
  B  B31  1  0.96522401  0.59840390  0.12382047  1
  B  B32  1  0.39212560  0.93471893  0.31513198  1
  B  B33  1  0.91312454  0.57747064  0.37144487  1
  B  B34  1  0.92156775  0.80909494  0.43681220  1
  B  B35  1  0.02528537  0.86149359  0.55980852  1
  B  B36  1  0.93529351  0.42816538  0.52423470  1
  B  B37  1  0.21620333  0.46280262  0.73954298  1
  B  B38  1  0.77148876  0.13392626  0.27883004  1
  B  B39  1  0.17598611  0.16035657  0.65753989  1
  B  B40  1  0.36080845  0.11426446  0.18601621  1
  B  B41  1  0.06928417  0.88784046  0.41094730  1
  B  B42  1  0.83381214  0.40635973  0.78214468  1
  B  B43  1  0.46057033  0.40792306  0.50485939  1
  B  B44  1  0.67808140  0.06401928  0.61424684  1
  B  B45  1  0.38778062  0.76166625  0.44503241  1
  B  B46  1  0.36541177  0.89980793  0.09820896  1
  B  B47  1  0.35656383  0.04191636  0.74334460  1
  B  B48  1  0.11566613  0.27184518  0.33858426  1
  B  B49  1  0.80135163  0.96822197  0.94483388  1
  N  N50  1  0.43033484  0.88699509  0.42447466  1
  N  N51  1  0.98856830  0.01576548  0.72955084  1
  N  N52  1  0.98909830  0.51607509  0.60615255  1
  N  N53  1  0.64552245  0.64375934  0.27389081  1
  N  N54  1  0.35888725  0.06575725  0.30582803  1
  N  N55  1  0.81212425  0.10971529  0.16061386  1
  N  N56  1  0.32386246  0.45904637  0.26862849  1
  N  N57  1  0.29419895  0.56729477  0.70131075  1
  N  N58  1  0.35280008  0.81628333  0.99774151  1
  N  N59  1  0.80954306  0.89694806  0.40476097  1
  N  N60  1  0.34996957  0.77880302  0.77980897  1
  N  N61  1  0.37394937  0.72633958  0.56562693  1
  N  N62  1  0.37023619  0.99510907  0.86145160  1
  N  N63  1  0.64692898  0.71741273  0.20765586  1
  N  N64  1  0.95722262  0.29269514  0.55990681  1
  N  N65  1  0.76155112  0.26233184  0.33434426  1
  N  N66  1  0.98975911  0.73352985  0.09923022  1
  N  N67  1  0.11896587  0.95380299  0.51057332  1
  N  N68  1  0.51723212  0.33670334  0.40199064  1
  N  N69  1  0.72140270  0.39009040  0.74191036  1
  N  N70  1  0.24208628  0.26074057  0.37391455  1
  N  N71  1  0.26914901  0.38796856  0.83294985  1
  N  N72  1  0.07222652  0.08230442  0.71447104  1
  N  N73  1  0.37088240  0.03183576  0.08218855  1
  N  N74  1  0.96684324  0.49775817  0.04330321  1
  N  N75  1  0.29383654  0.16460499  0.73470309  1
  N  N76  1  0.94718839  0.61715370  0.25378250  1
  N  N77  1  0.98415772  0.77821810  0.88039786  1
  N  N78  1  0.34789302  0.24488870  0.17169266  1
  N  N79  1  0.95882074  0.42269234  0.81668964  1
  N  N80  1  0.33257667  0.63844629  0.13332024  1
  N  N81  1  0.32274042  0.42376887  0.04608374  1
  N  N82  1  0.88739130  0.45173047  0.41033525  1
  N  N83  1  0.31133721  0.60322826  0.91624768  1
  N  N84  1  0.33993842  0.21060982  0.94947558  1
  N  N85  1  0.37150965  0.85206784  0.21503546  1
  N  N86  1  0.72937793  0.01083034  0.86053618  1
  N  N87  1  0.86426287  0.91758804  0.03338695  1
  N  N88  1  0.03735031  0.83142633  0.31156512  1
  N  N89  1  0.91684008  0.67500702  0.46535533  1
  N  N90  1  0.62601925  0.26802138  0.07684483  1
  N  N91  1  0.60238392  0.01309367  0.52478550  1
  N  N92  1  0.51550359  0.39539502  0.61584429  1
  N  N93  1  0.39140524  0.95350055  0.64040981  1
  N  N94  1  0.01370162  0.76143826  0.64359945  1
  N  N95  1  0.79522476  0.10212877  0.54203093  1
  N  N96  1  0.00251853  0.27415923  0.29546074  1
  N  N97  1  0.67156423  0.29750596  0.99115362  1
  N  N98  1  0.35272082  0.67669027  0.35027639  1
  N  N99  1  0.36082466  0.50376605  0.48844142  1
