# generated using pymatgen
data_SrGe7N10
_symmetry_space_group_name_H-M   'P 1'
_cell_length_a   7.26460565
_cell_length_b   7.16673752
_cell_length_c   10.24159717
_cell_angle_alpha   90.00000000
_cell_angle_beta   105.47053551
_cell_angle_gamma   90.00000000
_symmetry_Int_Tables_number   1
_chemical_formula_structural   SrGe7N10
_chemical_formula_sum   'Sr2 Ge14 N20'
_cell_volume   513.89409142
_cell_formula_units_Z   2
loop_
 _symmetry_equiv_pos_site_id
 _symmetry_equiv_pos_as_xyz
  1  'x, y, z'
loop_
 _atom_site_type_symbol
 _atom_site_label
 _atom_site_symmetry_multiplicity
 _atom_site_fract_x
 _atom_site_fract_y
 _atom_site_fract_z
 _atom_site_occupancy
  Sr  Sr0  1  0.91455423  0.02402322  0.63493862  1
  Sr  Sr1  1  0.91455423  0.97597678  0.13493862  1
  Ge  Ge2  1  0.54511637  0.97076336  0.82679862  1
  Ge  Ge3  1  0.54511637  0.02923664  0.32679862  1
  Ge  Ge4  1  0.34949682  0.02806398  0.01756890  1
  Ge  Ge5  1  0.34949682  0.97193602  0.51756890  1
  Ge  Ge6  1  0.11197847  0.39316195  0.07520552  1
  Ge  Ge7  1  0.11197847  0.60683805  0.57520552  1
  Ge  Ge8  1  0.66554269  0.36541206  0.99326865  1
  Ge  Ge9  1  0.66554269  0.63458794  0.49326865  1
  Ge  Ge10  1  0.85146562  0.62748717  0.81280328  1
  Ge  Ge11  1  0.85146562  0.37251283  0.31280328  1
  Ge  Ge12  1  0.29722162  0.62186647  0.88440129  1
  Ge  Ge13  1  0.29722162  0.37813353  0.38440129  1
  Ge  Ge14  1  0.48624161  0.36998493  0.68910412  1
  Ge  Ge15  1  0.48624161  0.63001507  0.18910412  1
  N  N16  1  0.77265286  0.86010747  0.84228533  1
  N  N17  1  0.77265286  0.13989253  0.34228533  1
  N  N18  1  0.57297169  0.12669819  0.97981840  1
  N  N19  1  0.57297169  0.87330181  0.47981840  1
  N  N20  1  0.31753195  0.87480005  0.86240269  1
  N  N21  1  0.31753195  0.12519995  0.36240269  1
  N  N22  1  0.14186158  0.15446299  0.02677137  1
  N  N23  1  0.14186158  0.84553701  0.52677137  1
  N  N24  1  0.28409309  0.49840305  0.72535819  1
  N  N25  1  0.28409309  0.50159695  0.22535819  1
  N  N26  1  0.45896502  0.11594945  0.67221469  1
  N  N27  1  0.45896502  0.88405055  0.17221469  1
  N  N28  1  0.88679243  0.37239360  0.13376465  1
  N  N29  1  0.88679243  0.62760640  0.63376465  1
  N  N30  1  0.08034790  0.58350135  0.94364864  1
  N  N31  1  0.08034790  0.41649865  0.44364864  1
  N  N32  1  0.70779163  0.41473151  0.82493406  1
  N  N33  1  0.70779163  0.58526849  0.32493406  1
  N  N34  1  0.49767641  0.53859069  0.02401199  1
  N  N35  1  0.49767641  0.46140931  0.52401199  1
