# generated using pymatgen
data_Bi4Se3N2
_symmetry_space_group_name_H-M   'P 1'
_cell_length_a   7.57610405
_cell_length_b   3.97802432
_cell_length_c   9.48209952
_cell_angle_alpha   90.00000208
_cell_angle_beta   57.12949336
_cell_angle_gamma   74.77932042
_symmetry_Int_Tables_number   1
_chemical_formula_structural   Bi4Se3N2
_chemical_formula_sum   'Bi4 Se3 N2'
_cell_volume   227.99156678
_cell_formula_units_Z   1
loop_
 _symmetry_equiv_pos_site_id
 _symmetry_equiv_pos_as_xyz
  1  'x, y, z'
loop_
 _atom_site_type_symbol
 _atom_site_label
 _atom_site_symmetry_multiplicity
 _atom_site_fract_x
 _atom_site_fract_y
 _atom_site_fract_z
 _atom_site_occupancy
  Bi  Bi0  1  0.25420717  0.87289642  0.58196837  1
  Bi  Bi1  1  0.74579283  0.12710358  0.41803163  1
  Bi  Bi2  1  0.63312169  0.68343916  0.11944468  1
  Bi  Bi3  1  0.36687831  0.31656084  0.88055532  1
  Se  Se4  1  0.00000000  0.00000000  0.00000000  1
  Se  Se5  1  0.71215628  0.64392186  0.72268001  1
  Se  Se6  1  0.28784372  0.35607814  0.27731999  1
  N  N7  1  0.61818463  0.69090769  0.36360589  1
  N  N8  1  0.38181537  0.30909231  0.63639411  1
