# generated using pymatgen
data_SnO2
_symmetry_space_group_name_H-M   'P 1'
_cell_length_a   10.99152536
_cell_length_b   10.70613146
_cell_length_c   10.50752561
_cell_angle_alpha   91.66163412
_cell_angle_beta   89.64943809
_cell_angle_gamma   85.96854278
_symmetry_Int_Tables_number   1
_chemical_formula_structural   SnO2
_chemical_formula_sum   'Sn30 O60'
_cell_volume   1232.87161642
_cell_formula_units_Z   30
loop_
 _symmetry_equiv_pos_site_id
 _symmetry_equiv_pos_as_xyz
  1  'x, y, z'
loop_
 _atom_site_type_symbol
 _atom_site_label
 _atom_site_symmetry_multiplicity
 _atom_site_fract_x
 _atom_site_fract_y
 _atom_site_fract_z
 _atom_site_occupancy
  Sn  Sn0  1  0.83901163  0.13208687  0.16629983  1
  Sn  Sn1  1  0.40461715  0.53059273  0.85826356  1
  Sn  Sn2  1  0.94201043  0.87526408  0.69245882  1
  Sn  Sn3  1  0.50677403  0.79704206  0.76734679  1
  Sn  Sn4  1  0.08582618  0.58775134  0.89041522  1
  Sn  Sn5  1  0.82938966  0.58761333  0.74023783  1
  Sn  Sn6  1  0.41805967  0.26033522  0.69804434  1
  Sn  Sn7  1  0.58386985  0.29303971  0.05375155  1
  Sn  Sn8  1  0.08496016  0.59664246  0.49962022  1
  Sn  Sn9  1  0.43157844  0.02488925  0.28808983  1
  Sn  Sn10  1  0.74768854  0.54249769  0.02360968  1
  Sn  Sn11  1  0.18596171  0.57109268  0.18002386  1
  Sn  Sn12  1  0.33970681  0.81536508  0.02457748  1
  Sn  Sn13  1  0.66288804  0.86962538  0.04567666  1
  Sn  Sn14  1  0.42855125  0.55692538  0.50164871  1
  Sn  Sn15  1  0.24175253  0.28849514  0.96429370  1
  Sn  Sn16  1  0.01281145  0.87225107  0.99797142  1
  Sn  Sn17  1  0.13158080  0.34176265  0.65967692  1
  Sn  Sn18  1  0.89665226  0.70074534  0.23159608  1
  Sn  Sn19  1  0.69627683  0.87677598  0.49015175  1
  Sn  Sn20  1  0.12741517  0.06784925  0.21955904  1
  Sn  Sn21  1  0.30099383  0.32389748  0.35479236  1
  Sn  Sn22  1  0.96111570  0.13998014  0.85826316  1
  Sn  Sn23  1  0.50991046  0.60997163  0.22721066  1
  Sn  Sn24  1  0.23801198  0.03076401  0.75560754  1
  Sn  Sn25  1  0.21739841  0.85521557  0.47198180  1
  Sn  Sn26  1  0.95877885  0.10444595  0.49206919  1
  Sn  Sn27  1  0.60711953  0.23335206  0.41453179  1
  Sn  Sn28  1  0.68792151  0.28935665  0.77075562  1
  Sn  Sn29  1  0.83074568  0.39118549  0.47633439  1
  O  O30  1  0.73021178  0.36411458  0.94932863  1
  O  O31  1  0.25451761  0.65211072  0.89322404  1
  O  O32  1  0.43992072  0.63045772  0.68481085  1
  O  O33  1  0.40262552  0.38067014  0.00446756  1
  O  O34  1  0.69514312  0.25746295  0.21223138  1
  O  O35  1  0.54057631  0.66513206  0.40636871  1
  O  O36  1  0.26278034  0.66333899  0.47512837  1
  O  O37  1  0.93323756  0.20870223  0.03284671  1
  O  O38  1  0.55412417  0.86004871  0.59774488  1
  O  O39  1  0.39201442  0.48789151  0.31385892  1
  O  O40  1  0.34475015  0.15832121  0.84866439  1
  O  O41  1  0.88636205  0.96507653  0.86623126  1
  O  O42  1  0.58528942  0.18704848  0.89130130  1
  O  O43  1  0.06573816  0.78078888  0.56571937  1
  O  O44  1  0.30678472  0.91838122  0.61815276  1
  O  O45  1  0.91328061  0.53286411  0.90299659  1
  O  O46  1  0.35644284  0.89818909  0.85352552  1
  O  O47  1  0.19628243  0.43298357  0.50953819  1
  O  O48  1  0.06919366  0.67410424  0.31536365  1
  O  O49  1  0.04364301  0.52958707  0.69370857  1
  O  O50  1  0.22837641  0.18003366  0.11296282  1
  O  O51  1  0.34113380  0.87820688  0.33428276  1
  O  O52  1  0.04623357  0.03656577  0.66147741  1
  O  O53  1  0.77229314  0.43132875  0.65981581  1
  O  O54  1  0.85080205  0.53170749  0.18072266  1
  O  O55  1  0.68668455  0.61910173  0.85808425  1
  O  O56  1  0.97392126  0.17448958  0.30016236  1
  O  O57  1  0.18605199  0.89851511  0.10402090  1
  O  O58  1  0.91176428  0.54931245  0.45623416  1
  O  O59  1  0.65171903  0.41549793  0.42469696  1
  O  O60  1  0.28161429  0.40301172  0.77589863  1
  O  O61  1  0.79235633  0.20521297  0.45258647  1
  O  O62  1  0.06370154  0.68466679  0.07302825  1
  O  O63  1  0.46643822  0.21932290  0.27534282  1
  O  O64  1  0.25772090  0.18840296  0.62289505  1
  O  O65  1  0.59141827  0.47741662  0.11451070  1
  O  O66  1  0.64112578  0.70447882  0.13466267  1
  O  O67  1  0.63196770  0.88610114  0.86257675  1
  O  O68  1  0.47114207  0.92332112  0.11819544  1
  O  O69  1  0.47611816  0.69180729  0.93562009  1
  O  O70  1  0.11494001  0.02129928  0.89978248  1
  O  O71  1  0.69633478  0.03577049  0.11423968  1
  O  O72  1  0.84343139  0.19345222  0.72685488  1
  O  O73  1  0.97033276  0.97869047  0.15591507  1
  O  O74  1  0.99738434  0.28664828  0.53975227  1
  O  O75  1  0.83981371  0.97244731  0.55428616  1
  O  O76  1  0.15545343  0.45777288  0.01621833  1
  O  O77  1  0.81685760  0.74670378  0.64510005  1
  O  O78  1  0.08766445  0.97712642  0.39418587  1
  O  O79  1  0.52380623  0.40483823  0.76004170  1
  O  O80  1  0.02782116  0.76468601  0.83204364  1
  O  O81  1  0.09010888  0.27233001  0.83257090  1
  O  O82  1  0.16137150  0.41156491  0.26387527  1
  O  O83  1  0.33965939  0.66716286  0.15244696  1
  O  O84  1  0.42272710  0.35411860  0.51323605  1
  O  O85  1  0.78422689  0.81834533  0.33450699  1
  O  O86  1  0.26468482  0.13367989  0.35079480  1
  O  O87  1  0.84658529  0.78830335  0.06224903  1
  O  O88  1  0.58560606  0.19674598  0.61957988  1
  O  O89  1  0.59051872  0.02967133  0.39437257  1
