# generated using pymatgen
data_Cr2O3
_symmetry_space_group_name_H-M   'P 1'
_cell_length_a   9.93737914
_cell_length_b   9.06728673
_cell_length_c   10.48481459
_cell_angle_alpha   90.98175560
_cell_angle_beta   92.64275491
_cell_angle_gamma   92.01838544
_symmetry_Int_Tables_number   1
_chemical_formula_structural   Cr2O3
_chemical_formula_sum   'Cr32 O48'
_cell_volume   942.97811469
_cell_formula_units_Z   16
loop_
 _symmetry_equiv_pos_site_id
 _symmetry_equiv_pos_as_xyz
  1  'x, y, z'
loop_
 _atom_site_type_symbol
 _atom_site_label
 _atom_site_symmetry_multiplicity
 _atom_site_fract_x
 _atom_site_fract_y
 _atom_site_fract_z
 _atom_site_occupancy
  Cr  Cr0  1  0.54848261  0.46895567  0.51824744  1
  Cr  Cr1  1  0.52382671  0.11695182  0.64539163  1
  Cr  Cr2  1  0.72314865  0.09420369  0.91630704  1
  Cr  Cr3  1  0.27097067  0.97347562  0.44317287  1
  Cr  Cr4  1  0.50575006  0.32867363  0.09484558  1
  Cr  Cr5  1  0.86892271  0.87165038  0.16622617  1
  Cr  Cr6  1  0.40975065  0.95896934  0.87160728  1
  Cr  Cr7  1  0.94368018  0.72922395  0.40400162  1
  Cr  Cr8  1  0.35744923  0.73854471  0.64362799  1
  Cr  Cr9  1  0.67752385  0.66058308  0.05654054  1
  Cr  Cr10  1  0.89183864  0.59761696  0.62447485  1
  Cr  Cr11  1  0.18813359  0.41240855  0.06572524  1
  Cr  Cr12  1  0.62600895  0.82468067  0.37594055  1
  Cr  Cr13  1  0.82664288  0.34618006  0.06484703  1
  Cr  Cr14  1  0.93985986  0.89074367  0.89828095  1
  Cr  Cr15  1  0.88996689  0.19677869  0.73879738  1
  Cr  Cr16  1  0.66661620  0.75310870  0.72092329  1
  Cr  Cr17  1  0.06725132  0.50805519  0.84747316  1
  Cr  Cr18  1  0.84192429  0.99538974  0.52126941  1
  Cr  Cr19  1  0.40100230  0.61761786  0.92190809  1
  Cr  Cr20  1  0.30348697  0.91227702  0.13903034  1
  Cr  Cr21  1  0.09042536  0.86578477  0.67906394  1
  Cr  Cr22  1  0.14362408  0.11375633  0.96471070  1
  Cr  Cr23  1  0.76685682  0.42152068  0.32371564  1
  Cr  Cr24  1  0.61667932  0.42267954  0.79718776  1
  Cr  Cr25  1  0.32898894  0.33573024  0.76393321  1
  Cr  Cr26  1  0.07723061  0.69071249  0.08834227  1
  Cr  Cr27  1  0.04543553  0.34628983  0.53794088  1
  Cr  Cr28  1  0.30807644  0.29618210  0.32677116  1
  Cr  Cr29  1  0.36148989  0.62533278  0.32313382  1
  Cr  Cr30  1  0.03197487  0.14744805  0.26796564  1
  Cr  Cr31  1  0.55420530  0.12165503  0.36384423  1
  O  O32  1  0.20516045  0.33445176  0.62386940  1
  O  O33  1  0.38414478  0.12989455  0.76359848  1
  O  O34  1  0.98509915  0.70850593  0.78614222  1
  O  O35  1  0.86000473  0.02160590  0.03402191  1
  O  O36  1  0.95965044  0.41528331  0.70410404  1
  O  O37  1  0.90797076  0.96665412  0.34598099  1
  O  O38  1  0.05803654  0.03653582  0.80286075  1
  O  O39  1  0.00318567  0.48286952  0.03320383  1
  O  O40  1  0.64913512  0.00770030  0.49809968  1
  O  O41  1  0.81291207  0.97551616  0.76236846  1
  O  O42  1  0.10715062  0.90508343  0.04484975  1
  O  O43  1  0.12657137  0.99062778  0.53607992  1
  O  O44  1  0.45754727  0.21963016  0.23883295  1
  O  O45  1  0.13391685  0.22355464  0.12812261  1
  O  O46  1  0.32791884  0.78501806  0.46437725  1
  O  O47  1  0.20892761  0.59765354  0.96677207  1
  O  O48  1  0.40494673  0.80123814  0.00840318  1
  O  O49  1  0.96746007  0.70081187  0.23411332  1
  O  O50  1  0.55338098  0.63112344  0.39523650  1
  O  O51  1  0.68159713  0.21227098  0.76222405  1
  O  O52  1  0.87266709  0.28431369  0.23708762  1
  O  O53  1  0.65999762  0.22280787  0.04134203  1
  O  O54  1  0.34992908  0.56669737  0.74594752  1
  O  O55  1  0.88005148  0.25781941  0.91380829  1
  O  O56  1  0.79567833  0.77717253  0.52956757  1
  O  O57  1  0.36561025  0.46015305  0.44044761  1
  O  O58  1  0.05701146  0.70038318  0.55574868  1
  O  O59  1  0.25786093  0.84120304  0.76428718  1
  O  O60  1  0.17542050  0.32183333  0.89137594  1
  O  O61  1  0.49726498  0.34166668  0.65744818  1
  O  O62  1  0.48588714  0.93143405  0.28618933  1
  O  O63  1  0.59742969  0.95752436  0.92231575  1
  O  O64  1  0.86752553  0.74313394  0.01133309  1
  O  O65  1  0.33004765  0.07391132  0.01035348  1
  O  O66  1  0.70964923  0.77091904  0.22011363  1
  O  O67  1  0.23594391  0.72208989  0.21179181  1
  O  O68  1  0.46019093  0.40021059  0.92022621  1
  O  O69  1  0.34067726  0.44814375  0.18992110  1
  O  O70  1  0.20725158  0.02730519  0.28410777  1
  O  O71  1  0.11988025  0.29675906  0.37486795  1
  O  O72  1  0.66756638  0.46122071  0.15187695  1
  O  O73  1  0.89772016  0.50732889  0.44977046  1
  O  O74  1  0.60407207  0.62752536  0.87244064  1
  O  O75  1  0.64421155  0.31790785  0.42862949  1
  O  O76  1  0.50170129  0.88420126  0.69396495  1
  O  O77  1  0.70172025  0.53711902  0.65710597  1
  O  O78  1  0.90583556  0.18824493  0.55455053  1
  O  O79  1  0.40163331  0.12591035  0.47840921  1
