# generated using pymatgen
data_Sr5(PbN3)2
_symmetry_space_group_name_H-M   'P 1'
_cell_length_a   6.66974750
_cell_length_b   6.47479243
_cell_length_c   14.61410884
_cell_angle_alpha   89.99999976
_cell_angle_beta   96.59675226
_cell_angle_gamma   119.03771080
_symmetry_Int_Tables_number   1
_chemical_formula_structural   Sr5(PbN3)2
_chemical_formula_sum   'Sr10 Pb4 N12'
_cell_volume   546.99885758
_cell_formula_units_Z   2
loop_
 _symmetry_equiv_pos_site_id
 _symmetry_equiv_pos_as_xyz
  1  'x, y, z'
loop_
 _atom_site_type_symbol
 _atom_site_label
 _atom_site_symmetry_multiplicity
 _atom_site_fract_x
 _atom_site_fract_y
 _atom_site_fract_z
 _atom_site_occupancy
  Sr  Sr0  1  0.17958741  0.84208171  0.01854045  1
  Sr  Sr1  1  0.82041259  0.66249530  0.48145955  1
  Sr  Sr2  1  0.82041259  0.15791829  0.98145955  1
  Sr  Sr3  1  0.17958741  0.33750470  0.51854045  1
  Sr  Sr4  1  0.29746327  0.04921005  0.71483278  1
  Sr  Sr5  1  0.70253673  0.75174678  0.78516722  1
  Sr  Sr6  1  0.70253673  0.95078995  0.28516722  1
  Sr  Sr7  1  0.29746327  0.24825322  0.21483278  1
  Sr  Sr8  1  1.00000000  0.37379081  0.75000000  1
  Sr  Sr9  1  0.00000000  0.62620919  0.25000000  1
  Pb  Pb10  1  0.57785993  0.91773117  0.58561308  1
  Pb  Pb11  1  0.42214007  0.33987124  0.91438692  1
  Pb  Pb12  1  0.42214007  0.08226883  0.41438692  1
  Pb  Pb13  1  0.57785993  0.66012876  0.08561308  1
  N  N14  1  0.93275777  0.01108933  0.63257252  1
  N  N15  1  0.06724223  0.07833256  0.86742748  1
  N  N16  1  0.06724223  0.98891067  0.36742748  1
  N  N17  1  0.93275777  0.92166744  0.13257252  1
  N  N18  1  0.31547930  0.66925456  0.66901505  1
  N  N19  1  0.68452070  0.35377427  0.83098495  1
  N  N20  1  0.68452070  0.33074544  0.33098495  1
  N  N21  1  0.31547930  0.64622573  0.16901505  1
  N  N22  1  0.52048288  0.24245147  0.56215739  1
  N  N23  1  0.47951712  0.72196859  0.93784261  1
  N  N24  1  0.47951712  0.75754853  0.43784261  1
  N  N25  1  0.52048288  0.27803141  0.06215739  1
