# generated using pymatgen
data_V(C4N3)2
_symmetry_space_group_name_H-M   'P 1'
_cell_length_a   5.77584731
_cell_length_b   7.45268388
_cell_length_c   7.45268351
_cell_angle_alpha   60.50270690
_cell_angle_beta   87.21547704
_cell_angle_gamma   87.21547608
_symmetry_Int_Tables_number   1
_chemical_formula_structural   V(C4N3)2
_chemical_formula_sum   'V1 C8 N6'
_cell_volume   278.77998861
_cell_formula_units_Z   1
loop_
 _symmetry_equiv_pos_site_id
 _symmetry_equiv_pos_as_xyz
  1  'x, y, z'
loop_
 _atom_site_type_symbol
 _atom_site_label
 _atom_site_symmetry_multiplicity
 _atom_site_fract_x
 _atom_site_fract_y
 _atom_site_fract_z
 _atom_site_occupancy
  V  V0  1  0.01991858  -0.00000002  -0.00000002  1
  C  C1  1  0.76849114  0.66999617  0.66999617  1
  C  C2  1  0.79803558  0.77740485  0.77740485  1
  C  C3  1  0.79151175  0.45422523  0.77684415  1
  C  C4  1  0.79151175  0.77684415  0.45422523  1
  C  C5  1  0.27133828  0.33000369  0.33000369  1
  C  C6  1  0.24834388  0.22314455  0.54580626  1
  C  C7  1  0.24193248  0.22258130  0.22258130  1
  C  C8  1  0.24834388  0.54580626  0.22314455  1
  N  N9  1  0.83448328  0.86620309  0.86620309  1
  N  N10  1  0.82383732  0.27463796  0.86741436  1
  N  N11  1  0.82383732  0.86741436  0.27463796  1
  N  N12  1  0.21605561  0.13255453  0.72538895  1
  N  N13  1  0.20545155  0.13379392  0.13379392  1
  N  N14  1  0.21605561  0.72538895  0.13255453  1
