# generated using pymatgen
data_Mg(PbN)2
_symmetry_space_group_name_H-M   'P 1'
_cell_length_a   3.39234071
_cell_length_b   3.39114736
_cell_length_c   9.23495971
_cell_angle_alpha   90.00265872
_cell_angle_beta   89.98974018
_cell_angle_gamma   120.01086469
_symmetry_Int_Tables_number   1
_chemical_formula_structural   Mg(PbN)2
_chemical_formula_sum   'Mg1 Pb2 N2'
_cell_volume   91.99499462
_cell_formula_units_Z   1
loop_
 _symmetry_equiv_pos_site_id
 _symmetry_equiv_pos_as_xyz
  1  'x, y, z'
loop_
 _atom_site_type_symbol
 _atom_site_label
 _atom_site_symmetry_multiplicity
 _atom_site_fract_x
 _atom_site_fract_y
 _atom_site_fract_z
 _atom_site_occupancy
  Mg  Mg0  1  0.00000000  0.00000000  0.00000000  1
  Pb  Pb1  1  0.66663447  0.33325644  0.28655048  1
  Pb  Pb2  1  0.33336553  0.66674356  0.71344952  1
  N  N3  1  0.66672013  0.33332086  0.86182124  1
  N  N4  1  0.33327987  0.66667914  0.13817876  1
