# generated using pymatgen
data_MgSiO3
_symmetry_space_group_name_H-M   'P 1'
_cell_length_a   4.93884009
_cell_length_b   8.84556891
_cell_length_c   9.67173921
_cell_angle_alpha   90.00000000
_cell_angle_beta   90.00000000
_cell_angle_gamma   90.00000000
_symmetry_Int_Tables_number   1
_chemical_formula_structural   MgSiO3
_chemical_formula_sum   'Mg8 Si8 O24'
_cell_volume   422.52782351
_cell_formula_units_Z   8
loop_
 _symmetry_equiv_pos_site_id
 _symmetry_equiv_pos_as_xyz
  1  'x, y, z'
loop_
 _atom_site_type_symbol
 _atom_site_label
 _atom_site_symmetry_multiplicity
 _atom_site_fract_x
 _atom_site_fract_y
 _atom_site_fract_z
 _atom_site_occupancy
  Mg  Mg0  1  0.69766394  0.66491987  0.75344396  1
  Mg  Mg1  1  0.69691279  0.66462687  0.49677138  1
  Mg  Mg2  1  0.30233606  0.33508013  0.25344396  1
  Mg  Mg3  1  0.80233606  0.16491987  0.25344396  1
  Mg  Mg4  1  0.30308721  0.33537313  0.99677138  1
  Mg  Mg5  1  0.80308721  0.16462687  0.99677138  1
  Mg  Mg6  1  0.19766394  0.83508013  0.75344396  1
  Mg  Mg7  1  0.19691279  0.83537313  0.49677138  1
  Si  Si8  1  0.91685010  0.35947295  0.75756528  1
  Si  Si9  1  0.58314990  0.85947295  0.25756528  1
  Si  Si10  1  0.41685010  0.14052705  0.75756528  1
  Si  Si11  1  0.08314990  0.64052705  0.25756528  1
  Si  Si12  1  0.91450831  0.35920804  0.49259099  1
  Si  Si13  1  0.58549169  0.85920804  0.99259099  1
  Si  Si14  1  0.41450831  0.14079196  0.49259099  1
  Si  Si15  1  0.08549169  0.64079196  0.99259099  1
  O  O16  1  0.51986452  0.22374098  0.12500879  1
  O  O17  1  0.99856015  0.49989739  0.37491636  1
  O  O18  1  0.00143985  0.50010261  0.87491636  1
  O  O19  1  0.98013548  0.72374098  0.62500879  1
  O  O20  1  0.87607721  0.78815779  0.33993030  1
  O  O21  1  0.48013548  0.77625902  0.62500879  1
  O  O22  1  0.49856015  0.00010261  0.37491636  1
  O  O23  1  0.37607721  0.71184221  0.33993030  1
  O  O24  1  0.62068886  0.28858107  0.40999634  1
  O  O25  1  0.85628186  0.65292883  0.12458093  1
  O  O26  1  0.87931114  0.78858107  0.90999634  1
  O  O27  1  0.12392279  0.21184221  0.83993030  1
  O  O28  1  0.12068886  0.21141893  0.40999634  1
  O  O29  1  0.37931114  0.71141893  0.90999634  1
  O  O30  1  0.22399961  0.04512981  0.62519467  1
  O  O31  1  0.35628186  0.84707117  0.12458093  1
  O  O32  1  0.01986452  0.27625902  0.12500879  1
  O  O33  1  0.50143985  0.99989739  0.87491636  1
  O  O34  1  0.77600039  0.95487019  0.12519467  1
  O  O35  1  0.64371814  0.15292883  0.62458093  1
  O  O36  1  0.62392279  0.28815779  0.83993030  1
  O  O37  1  0.27600039  0.54512981  0.12519467  1
  O  O38  1  0.14371814  0.34707117  0.62458093  1
  O  O39  1  0.72399961  0.45487019  0.62519467  1
