# generated using pymatgen
data_ScAlN2
_symmetry_space_group_name_H-M   'P 1'
_cell_length_a   4.39822978
_cell_length_b   4.39970562
_cell_length_c   5.22531109
_cell_angle_alpha   114.89769959
_cell_angle_beta   114.88876800
_cell_angle_gamma   90.00000000
_symmetry_Int_Tables_number   1
_chemical_formula_structural   ScAlN2
_chemical_formula_sum   'Sc2 Al2 N4'
_cell_volume   81.24717082
_cell_formula_units_Z   2
loop_
 _symmetry_equiv_pos_site_id
 _symmetry_equiv_pos_as_xyz
  1  'x, y, z'
loop_
 _atom_site_type_symbol
 _atom_site_label
 _atom_site_symmetry_multiplicity
 _atom_site_fract_x
 _atom_site_fract_y
 _atom_site_fract_z
 _atom_site_occupancy
  Sc  Sc0  1  0.62498882  0.87498882  0.74997764  1
  Sc  Sc1  1  0.37501118  0.12501118  0.25002236  1
  Al  Al2  1  0.12501549  0.37501549  0.75003198  1
  Al  Al3  1  0.87498451  0.62498451  0.24996802  1
  N  N4  1  0.36251366  0.61251366  0.22502831  1
  N  N5  1  0.63748634  0.38748634  0.77497169  1
  N  N6  1  0.88747638  0.13747638  0.27495176  1
  N  N7  1  0.11252362  0.86252362  0.72504824  1
