# generated using pymatgen
data_Sr2CoO4
_symmetry_space_group_name_H-M   'P 1'
_cell_length_a   5.50309406
_cell_length_b   11.00599011
_cell_length_c   6.83872315
_cell_angle_alpha   90.32055492
_cell_angle_beta   66.27826718
_cell_angle_gamma   90.81717333
_symmetry_Int_Tables_number   1
_chemical_formula_structural   Sr2CoO4
_chemical_formula_sum   'Sr8 Co4 O16'
_cell_volume   379.16655493
_cell_formula_units_Z   4
loop_
 _symmetry_equiv_pos_site_id
 _symmetry_equiv_pos_as_xyz
  1  'x, y, z'
loop_
 _atom_site_type_symbol
 _atom_site_label
 _atom_site_symmetry_multiplicity
 _atom_site_fract_x
 _atom_site_fract_y
 _atom_site_fract_z
 _atom_site_occupancy
  Sr  Sr0  1  0.35217185  0.50177773  0.28509837  1
  Sr  Sr1  1  0.85851459  0.25043220  0.28258740  1
  Sr  Sr2  1  0.36014887  0.99835935  0.28619361  1
  Sr  Sr3  1  0.85669041  0.74931996  0.28751102  1
  Sr  Sr4  1  0.14298423  0.74917988  0.71306897  1
  Sr  Sr5  1  0.63797956  0.50161605  0.71501765  1
  Sr  Sr6  1  0.14121828  0.25076936  0.71688942  1
  Sr  Sr7  1  0.64659916  0.99831342  0.71357164  1
  Co  Co8  1  0.49869548  0.75016850  0.00021977  1
  Co  Co9  1  0.99875982  0.49815827  0.00011851  1
  Co  Co10  1  0.49840991  0.24940399  0.99971556  1
  Co  Co11  1  0.99791687  0.00239092  0.99985683  1
  O  O12  1  0.15491592  0.49925098  0.68165933  1
  O  O13  1  0.65393527  0.24852540  0.69430756  1
  O  O14  1  0.16215354  0.00208507  0.68274479  1
  O  O15  1  0.66130131  0.75025566  0.68257117  1
  O  O16  1  0.34115265  0.74985145  0.31794767  1
  O  O17  1  0.83852323  0.49928419  0.31848143  1
  O  O18  1  0.34861061  0.24820702  0.30499235  1
  O  O19  1  0.84536745  0.00261805  0.31739397  1
  O  O20  1  0.72608220  0.63511484  0.00079911  1
  O  O21  1  0.25722115  0.36810343  0.99920588  1
  O  O22  1  0.74570064  0.13031979  0.99930533  1
  O  O23  1  0.27404000  0.86529870  0.99961821  1
  O  O24  1  0.22603003  0.61733514  0.99943702  1
  O  O25  1  0.75940958  0.38568462  0.00069448  1
  O  O26  1  0.23913801  0.11542270  0.99960586  1
  O  O27  1  0.77632939  0.88275333  0.00138711  1
