# generated using pymatgen
data_Ti2Pb5N6
_symmetry_space_group_name_H-M   'P 1'
_cell_length_a   6.10571637
_cell_length_b   7.89115717
_cell_length_c   15.24234565
_cell_angle_alpha   90.00000126
_cell_angle_beta   89.76384350
_cell_angle_gamma   130.25650013
_symmetry_Int_Tables_number   1
_chemical_formula_structural   Ti2Pb5N6
_chemical_formula_sum   'Ti4 Pb10 N12'
_cell_volume   560.45134394
_cell_formula_units_Z   2
loop_
 _symmetry_equiv_pos_site_id
 _symmetry_equiv_pos_as_xyz
  1  'x, y, z'
loop_
 _atom_site_type_symbol
 _atom_site_label
 _atom_site_symmetry_multiplicity
 _atom_site_fract_x
 _atom_site_fract_y
 _atom_site_fract_z
 _atom_site_occupancy
  Ti  Ti0  1  0.52303568  0.90689554  0.57314488  1
  Ti  Ti1  1  0.47696432  0.38385986  0.92685512  1
  Ti  Ti2  1  0.47696432  0.09310446  0.42685512  1
  Ti  Ti3  1  0.52303568  0.61614014  0.07314488  1
  Pb  Pb4  1  0.11116979  0.81265059  0.98539042  1
  Pb  Pb5  1  0.88883021  0.70148081  0.51460958  1
  Pb  Pb6  1  0.88883021  0.18734941  0.01460958  1
  Pb  Pb7  1  0.11116979  0.29851919  0.48539042  1
  Pb  Pb8  1  0.28388418  0.11079760  0.66924787  1
  Pb  Pb9  1  0.71611582  0.82691341  0.83075213  1
  Pb  Pb10  1  0.71611582  0.88920240  0.33075213  1
  Pb  Pb11  1  0.28388418  0.17308659  0.16924787  1
  Pb  Pb12  1  1.00000000  0.50415987  0.75000000  1
  Pb  Pb13  1  0.00000000  0.49584013  0.25000000  1
  N  N14  1  0.87722392  0.96456686  0.59200858  1
  N  N15  1  0.12277608  0.08734294  0.90799142  1
  N  N16  1  0.12277608  0.03543314  0.40799142  1
  N  N17  1  0.87722392  0.91265706  0.09200858  1
  N  N18  1  0.18922303  0.77620370  0.64998087  1
  N  N19  1  0.81077697  0.58698066  0.85001913  1
  N  N20  1  0.81077697  0.22379630  0.35001913  1
  N  N21  1  0.18922303  0.41301934  0.14998087  1
  N  N22  1  0.61468142  0.18435181  0.54550400  1
  N  N23  1  0.38531858  0.56967039  0.95449600  1
  N  N24  1  0.38531858  0.81564819  0.45449600  1
  N  N25  1  0.61468142  0.43032961  0.04550400  1
