# generated using pymatgen
data_ZnGe7N10
_symmetry_space_group_name_H-M   'P 1'
_cell_length_a   6.99471676
_cell_length_b   7.38023546
_cell_length_c   10.28923941
_cell_angle_alpha   90.00000000
_cell_angle_beta   102.74390751
_cell_angle_gamma   90.00000000
_symmetry_Int_Tables_number   1
_chemical_formula_structural   ZnGe7N10
_chemical_formula_sum   'Zn2 Ge14 N20'
_cell_volume   518.07321481
_cell_formula_units_Z   2
loop_
 _symmetry_equiv_pos_site_id
 _symmetry_equiv_pos_as_xyz
  1  'x, y, z'
loop_
 _atom_site_type_symbol
 _atom_site_label
 _atom_site_symmetry_multiplicity
 _atom_site_fract_x
 _atom_site_fract_y
 _atom_site_fract_z
 _atom_site_occupancy
  Zn  Zn0  1  0.89655087  0.91214734  0.63593378  1
  Zn  Zn1  1  0.89655087  0.08785266  0.13593378  1
  Ge  Ge2  1  0.55700281  0.98160043  0.82893010  1
  Ge  Ge3  1  0.55700281  0.01839957  0.32893010  1
  Ge  Ge4  1  0.34855257  0.01636582  0.03090977  1
  Ge  Ge5  1  0.34855257  0.98363418  0.53090977  1
  Ge  Ge6  1  0.11574974  0.39714902  0.07357179  1
  Ge  Ge7  1  0.11574974  0.60285098  0.57357179  1
  Ge  Ge8  1  0.65994565  0.36690860  0.99189469  1
  Ge  Ge9  1  0.65994565  0.63309140  0.49189469  1
  Ge  Ge10  1  0.84949450  0.61957202  0.80974584  1
  Ge  Ge11  1  0.84949450  0.38042798  0.30974584  1
  Ge  Ge12  1  0.30289000  0.63146782  0.88229547  1
  Ge  Ge13  1  0.30289000  0.36853218  0.38229547  1
  Ge  Ge14  1  0.48807844  0.36854029  0.68776668  1
  Ge  Ge15  1  0.48807844  0.63145971  0.18776668  1
  N  N16  1  0.76722176  0.85914756  0.79455774  1
  N  N17  1  0.76722176  0.14085244  0.29455774  1
  N  N18  1  0.58603610  0.12416998  0.98824511  1
  N  N19  1  0.58603610  0.87583002  0.48824511  1
  N  N20  1  0.33576477  0.87597283  0.87651419  1
  N  N21  1  0.33576477  0.12402717  0.37651419  1
  N  N22  1  0.13261412  0.14703321  0.05026069  1
  N  N23  1  0.13261412  0.85296679  0.55026069  1
  N  N24  1  0.29364169  0.51689136  0.72275778  1
  N  N25  1  0.29364169  0.48310864  0.22275778  1
  N  N26  1  0.45062471  0.12379805  0.68132704  1
  N  N27  1  0.45062471  0.87620195  0.18132704  1
  N  N28  1  0.88051259  0.39111416  0.12951165  1
  N  N29  1  0.88051259  0.60888584  0.62951165  1
  N  N30  1  0.07753880  0.57816770  0.94010653  1
  N  N31  1  0.07753880  0.42183230  0.44010653  1
  N  N32  1  0.70494806  0.41406621  0.82428903  1
  N  N33  1  0.70494806  0.58593379  0.32428903  1
  N  N34  1  0.49513083  0.54371424  0.02068313  1
  N  N35  1  0.49513083  0.45628576  0.52068313  1
