# generated using pymatgen
data_GaBiN2
_symmetry_space_group_name_H-M   'P 1'
_cell_length_a   7.66913561
_cell_length_b   6.53512098
_cell_length_c   5.81759634
_cell_angle_alpha   90.00000000
_cell_angle_beta   103.68343613
_cell_angle_gamma   90.00000000
_symmetry_Int_Tables_number   1
_chemical_formula_structural   GaBiN2
_chemical_formula_sum   'Ga4 Bi4 N8'
_cell_volume   283.29504761
_cell_formula_units_Z   4
loop_
 _symmetry_equiv_pos_site_id
 _symmetry_equiv_pos_as_xyz
  1  'x, y, z'
loop_
 _atom_site_type_symbol
 _atom_site_label
 _atom_site_symmetry_multiplicity
 _atom_site_fract_x
 _atom_site_fract_y
 _atom_site_fract_z
 _atom_site_occupancy
  Ga  Ga0  1  0.12507983  0.36076504  0.63680334  1
  Ga  Ga1  1  0.87492017  0.86076504  0.86319666  1
  Ga  Ga2  1  0.87492017  0.63923496  0.36319666  1
  Ga  Ga3  1  0.12507983  0.13923496  0.13680334  1
  Bi  Bi4  1  0.30468168  0.88474072  0.68774167  1
  Bi  Bi5  1  0.69531832  0.38474072  0.81225833  1
  Bi  Bi6  1  0.69531832  0.11525928  0.31225833  1
  Bi  Bi7  1  0.30468168  0.61525928  0.18774167  1
  N  N8  1  0.14610170  0.87470793  0.96838781  1
  N  N9  1  0.85389830  0.37470793  0.53161219  1
  N  N10  1  0.85389830  0.12529207  0.03161219  1
  N  N11  1  0.14610170  0.62529207  0.46838781  1
  N  N12  1  0.21228254  0.35356342  0.97139923  1
  N  N13  1  0.78771746  0.85356342  0.52860077  1
  N  N14  1  0.78771746  0.64643658  0.02860077  1
  N  N15  1  0.21228254  0.14643658  0.47139923  1
