# generated using pymatgen
data_Mg2CdN2
_symmetry_space_group_name_H-M   'P 1'
_cell_length_a   3.55276864
_cell_length_b   3.55299673
_cell_length_c   5.98383066
_cell_angle_alpha   90.00000051
_cell_angle_beta   90.00453680
_cell_angle_gamma   120.00211823
_symmetry_Int_Tables_number   1
_chemical_formula_structural   Mg2CdN2
_chemical_formula_sum   'Mg2 Cd1 N2'
_cell_volume   65.41274706
_cell_formula_units_Z   1
loop_
 _symmetry_equiv_pos_site_id
 _symmetry_equiv_pos_as_xyz
  1  'x, y, z'
loop_
 _atom_site_type_symbol
 _atom_site_label
 _atom_site_symmetry_multiplicity
 _atom_site_fract_x
 _atom_site_fract_y
 _atom_site_fract_z
 _atom_site_occupancy
  Mg  Mg0  1  0.66667232  0.33333666  0.15344173  1
  Mg  Mg1  1  0.33332768  0.66666334  0.84655827  1
  Cd  Cd2  1  0.00000000  0.00000000  0.50000000  1
  N  N3  1  0.66662352  0.33331126  0.77223108  1
  N  N4  1  0.33337648  0.66668874  0.22776892  1
