# generated using pymatgen
data_TiO2
_symmetry_space_group_name_H-M   'P 1'
_cell_length_a   10.59112424
_cell_length_b   10.78473697
_cell_length_c   10.48617575
_cell_angle_alpha   89.96794575
_cell_angle_beta   83.83199623
_cell_angle_gamma   83.35628195
_symmetry_Int_Tables_number   1
_chemical_formula_structural   TiO2
_chemical_formula_sum   'Ti30 O60'
_cell_volume   1182.74131011
_cell_formula_units_Z   30
loop_
 _symmetry_equiv_pos_site_id
 _symmetry_equiv_pos_as_xyz
  1  'x, y, z'
loop_
 _atom_site_type_symbol
 _atom_site_label
 _atom_site_symmetry_multiplicity
 _atom_site_fract_x
 _atom_site_fract_y
 _atom_site_fract_z
 _atom_site_occupancy
  Ti  Ti0  1  0.17952645  0.34793840  0.38516657  1
  Ti  Ti1  1  0.85582755  0.10086860  0.52685861  1
  Ti  Ti2  1  0.52256487  0.80652508  0.64302283  1
  Ti  Ti3  1  0.75344649  0.79094852  0.19929252  1
  Ti  Ti4  1  0.29551092  0.43981192  0.07341547  1
  Ti  Ti5  1  0.42214903  0.16314093  0.20481559  1
  Ti  Ti6  1  0.99532479  0.56025093  0.26346857  1
  Ti  Ti7  1  0.55775202  0.52110267  0.08098203  1
  Ti  Ti8  1  0.63806758  0.54453448  0.76243345  1
  Ti  Ti9  1  0.48469839  0.36854102  0.45512206  1
  Ti  Ti10  1  0.37323129  0.03956430  0.82894171  1
  Ti  Ti11  1  0.89706516  0.42671462  0.54039026  1
  Ti  Ti12  1  0.08563442  0.43012470  0.80119626  1
  Ti  Ti13  1  0.07196953  0.87230164  0.63600764  1
  Ti  Ti14  1  0.16630311  0.18658839  0.02715781  1
  Ti  Ti15  1  0.30487459  0.65396089  0.81090273  1
  Ti  Ti16  1  0.87502189  0.30017641  0.25659341  1
  Ti  Ti17  1  0.29867241  0.22995201  0.60744818  1
  Ti  Ti18  1  0.60449142  0.22234831  0.73561038  1
  Ti  Ti19  1  0.68390877  0.56013857  0.37316874  1
  Ti  Ti20  1  0.92344603  0.04584438  0.16762247  1
  Ti  Ti21  1  0.83016945  0.76706714  0.48629498  1
  Ti  Ti22  1  0.85860391  0.01416713  0.84005795  1
  Ti  Ti23  1  0.31849890  0.90019958  0.39495726  1
  Ti  Ti24  1  0.10511230  0.90403011  0.95964779  1
  Ti  Ti25  1  0.66002949  0.24876760  0.02789826  1
  Ti  Ti26  1  0.26466616  0.64090026  0.28492260  1
  Ti  Ti27  1  0.16328775  0.61382843  0.56816668  1
  Ti  Ti28  1  0.87519922  0.51448660  0.97051797  1
  Ti  Ti29  1  0.68780256  0.76122005  0.95038941  1
  O  O30  1  0.00898764  0.87395626  0.82527912  1
  O  O31  1  0.28666215  0.80361533  0.25715257  1
  O  O32  1  0.79456237  0.94851572  0.19951883  1
  O  O33  1  0.49857809  0.26621248  0.32089878  1
  O  O34  1  0.47630704  0.89312965  0.79744652  1
  O  O35  1  0.30741863  0.39744843  0.49097948  1
  O  O36  1  0.79177825  0.22087135  0.13476978  1
  O  O37  1  0.22673522  0.53927608  0.71738127  1
  O  O38  1  0.64545830  0.58304399  0.21098026  1
  O  O39  1  0.57196326  0.12446745  0.10402433  1
  O  O40  1  0.33859252  0.06805541  0.66748826  1
  O  O41  1  0.18720882  0.21004079  0.48508040  1
  O  O42  1  0.77402817  0.60159834  0.83962707  1
  O  O43  1  0.16703672  0.93695729  0.49697379  1
  O  O44  1  0.69828053  0.74786780  0.37214707  1
  O  O45  1  0.32372270  0.12867990  0.06386802  1
  O  O46  1  0.93711306  0.37320937  0.86538391  1
  O  O47  1  0.05945704  0.92364820  0.13536586  1
  O  O48  1  0.86100683  0.92237271  0.46848096  1
  O  O49  1  0.74648930  0.90200937  0.86639225  1
  O  O50  1  0.53334098  0.52887017  0.45574882  1
  O  O51  1  0.37444926  0.03727368  0.31107892  1
  O  O52  1  0.00669859  0.73500108  0.56733657  1
  O  O53  1  0.23471121  0.77774773  0.93071442  1
  O  O54  1  0.69718056  0.11286591  0.61083315  1
  O  O55  1  0.03171817  0.56461144  0.91300464  1
  O  O56  1  0.44724791  0.85621421  0.50362795  1
  O  O57  1  0.20494695  0.28768930  0.74710252  1
  O  O58  1  0.26899235  0.31194911  0.23040500  1
  O  O59  1  0.55747700  0.63688418  0.95272971  1
  O  O60  1  0.91455343  0.46175614  0.15195488  1
  O  O61  1  0.93679102  0.05420586  0.98026991  1
  O  O62  1  0.18266166  0.35098400  0.98707764  1
  O  O63  1  0.02971151  0.47203756  0.62848364  1
  O  O64  1  0.20812354  0.76383055  0.68204852  1
  O  O65  1  0.86678198  0.57593151  0.42582338  1
  O  O66  1  0.70853752  0.42266392  0.01800619  1
  O  O67  1  0.04002502  0.19140317  0.15661517  1
  O  O68  1  0.48043169  0.15945181  0.83792521  1
  O  O69  1  0.88590846  0.13846213  0.34315386  1
  O  O70  1  0.74500713  0.38369529  0.36352566  1
  O  O71  1  0.48381584  0.26783027  0.60028600  1
  O  O72  1  0.93014848  0.71790999  0.25031054  1
  O  O73  1  0.59712884  0.38784106  0.78881963  1
  O  O74  1  0.00063886  0.37031431  0.36461714  1
  O  O75  1  0.72912261  0.17241741  0.86783618  1
  O  O76  1  0.94517993  0.02962345  0.66755766  1
  O  O77  1  0.19299546  0.04287110  0.90317569  1
  O  O78  1  0.82191103  0.70011154  0.04079888  1
  O  O79  1  0.39716158  0.54275327  0.19947882  1
  O  O80  1  0.29148511  0.66778378  0.45937370  1
  O  O81  1  0.73610028  0.50196745  0.61321999  1
  O  O82  1  0.12960908  0.54819164  0.39300460  1
  O  O83  1  0.33398441  0.53404574  0.93322328  1
  O  O84  1  0.48436277  0.36063662  0.05865717  1
  O  O85  1  0.69674535  0.77734355  0.62157085  1
  O  O86  1  0.88274184  0.26418767  0.57302110  1
  O  O87  1  0.61424197  0.82710725  0.10287943  1
  O  O88  1  0.47896392  0.65179959  0.71590677  1
  O  O89  1  0.16389261  0.56056596  0.16028411  1
