# generated using pymatgen
data_SnGeN2
_symmetry_space_group_name_H-M   'P 1'
_cell_length_a   5.14963853
_cell_length_b   5.47595540
_cell_length_c   5.47595540
_cell_angle_alpha   62.76519903
_cell_angle_beta   61.95242338
_cell_angle_gamma   61.95242338
_symmetry_Int_Tables_number   1
_chemical_formula_structural   SnGeN2
_chemical_formula_sum   'Sn2 Ge2 N4'
_cell_volume   114.59644530
_cell_formula_units_Z   2
loop_
 _symmetry_equiv_pos_site_id
 _symmetry_equiv_pos_as_xyz
  1  'x, y, z'
loop_
 _atom_site_type_symbol
 _atom_site_label
 _atom_site_symmetry_multiplicity
 _atom_site_fract_x
 _atom_site_fract_y
 _atom_site_fract_z
 _atom_site_occupancy
  Sn  Sn0  1  0.18247136  0.36846731  0.36846731  1
  Sn  Sn1  1  0.41940697  0.63153269  0.63153269  1
  Ge  Ge2  1  0.61574268  0.88197691  0.88197691  1
  Ge  Ge3  1  0.87969651  0.11802309  0.11802309  1
  N  N4  1  0.95913904  0.89582241  0.89582241  1
  N  N5  1  0.25078287  0.10417759  0.10417759  1
  N  N6  1  0.59638028  0.50000000  0.00000000  1
  N  N7  1  0.59638028  0.00000000  0.50000000  1
