# generated using pymatgen
data_Al2O3
_symmetry_space_group_name_H-M   'P 1'
_cell_length_a   10.02485596
_cell_length_b   10.02510962
_cell_length_c   10.97272479
_cell_angle_alpha   90.96521881
_cell_angle_beta   86.21401978
_cell_angle_gamma   89.32107744
_symmetry_Int_Tables_number   1
_chemical_formula_structural   Al2O3
_chemical_formula_sum   'Al40 O60'
_cell_volume   1100.10631998
_cell_formula_units_Z   20
loop_
 _symmetry_equiv_pos_site_id
 _symmetry_equiv_pos_as_xyz
  1  'x, y, z'
loop_
 _atom_site_type_symbol
 _atom_site_label
 _atom_site_symmetry_multiplicity
 _atom_site_fract_x
 _atom_site_fract_y
 _atom_site_fract_z
 _atom_site_occupancy
  Al  Al0  1  0.75599766  0.48647439  0.76510935  1
  Al  Al1  1  0.78885084  0.82776539  0.32462850  1
  Al  Al2  1  0.55226347  0.70303665  0.73796906  1
  Al  Al3  1  0.05826133  0.67662488  0.14665651  1
  Al  Al4  1  0.83593898  0.48801860  0.20041428  1
  Al  Al5  1  0.22654417  0.00477624  0.46523409  1
  Al  Al6  1  0.05869065  0.57522470  0.68037067  1
  Al  Al7  1  0.95331550  0.34382665  0.55620301  1
  Al  Al8  1  0.56355218  0.35975272  0.18265195  1
  Al  Al9  1  0.69601425  0.24446795  0.92368279  1
  Al  Al10  1  0.46721738  0.48439814  0.50520704  1
  Al  Al11  1  0.24264006  0.25930896  0.63022435  1
  Al  Al12  1  0.68005410  0.30083898  0.60441736  1
  Al  Al13  1  0.72616479  0.80679992  0.55743279  1
  Al  Al14  1  0.55946259  0.04365220  0.03957596  1
  Al  Al15  1  0.07256138  0.88946461  0.67908557  1
  Al  Al16  1  0.32786464  0.15249270  0.22558687  1
  Al  Al17  1  0.77836587  0.91541874  0.82812393  1
  Al  Al18  1  0.37021935  0.45539664  0.73686368  1
  Al  Al19  1  0.48482560  0.90518857  0.30283114  1
  Al  Al20  1  0.55143585  0.11546287  0.75853509  1
  Al  Al21  1  0.20452371  0.50096262  0.91980785  1
  Al  Al22  1  0.93876676  0.64581166  0.93451430  1
  Al  Al23  1  0.07634904  0.90893677  0.27577000  1
  Al  Al24  1  0.28707457  0.67519169  0.31759826  1
  Al  Al25  1  0.49842742  0.19020900  0.44900851  1
  Al  Al26  1  0.99301684  0.26094422  0.00370754  1
  Al  Al27  1  0.53885071  0.53249365  0.98435693  1
  Al  Al28  1  0.11355928  0.95252449  0.98315566  1
  Al  Al29  1  0.90706542  0.07676209  0.45567509  1
  Al  Al30  1  0.84673972  0.05443826  0.14533566  1
  Al  Al31  1  0.53878301  0.63578744  0.23967157  1
  Al  Al32  1  0.42498504  0.89979828  0.58440765  1
  Al  Al33  1  0.32033668  0.21382109  0.93149162  1
  Al  Al34  1  0.30800859  0.89933873  0.80888750  1
  Al  Al35  1  0.71476865  0.79293184  0.04586194  1
  Al  Al36  1  0.28807077  0.41397568  0.17607541  1
  Al  Al37  1  0.90165638  0.15886557  0.74133808  1
  Al  Al38  1  0.02277171  0.33793077  0.28953889  1
  Al  Al39  1  0.98938359  0.64397107  0.43538297  1
  O  O40  1  0.95273257  0.76522011  0.27207189  1
  O  O41  1  0.19240861  0.30433801  0.27042578  1
  O  O42  1  0.72272343  0.09080334  0.80750906  1
  O  O43  1  0.83293663  0.18686875  0.59480415  1
  O  O44  1  0.55757303  0.04116724  0.38176719  1
  O  O45  1  0.80188577  0.43610249  0.61121344  1
  O  O46  1  0.19691340  0.52410931  0.76139013  1
  O  O47  1  0.24712370  0.92292076  0.64463759  1
  O  O48  1  0.63415444  0.38048157  0.02332904  1
  O  O49  1  0.02851303  0.73265447  0.62596784  1
  O  O50  1  0.26140178  0.04237080  0.92938746  1
  O  O51  1  0.06149192  0.25604738  0.66295208  1
  O  O52  1  0.95607308  0.25233600  0.41419103  1
  O  O53  1  0.60757671  0.66194068  0.07977849  1
  O  O54  1  0.39968689  0.74930313  0.81460391  1
  O  O55  1  0.78782433  0.94128485  0.46358864  1
  O  O56  1  0.44767418  0.01915634  0.16576501  1
  O  O57  1  0.92430118  0.32655790  0.15093343  1
  O  O58  1  0.85725344  0.80064379  0.93353706  1
  O  O59  1  0.12983057  0.85689238  0.84453253  1
  O  O60  1  0.20928559  0.03132568  0.30033489  1
  O  O61  1  0.88271766  0.26474568  0.88370043  1
  O  O62  1  0.40187638  0.76344618  0.22590906  1
  O  O63  1  0.93829033  0.98678303  0.75314108  1
  O  O64  1  0.81771454  0.69204130  0.46207819  1
  O  O65  1  0.50728157  0.15887765  0.92060164  1
  O  O66  1  0.92076199  0.54643449  0.80201808  1
  O  O67  1  0.14863129  0.33660749  0.96469744  1
  O  O68  1  0.14122528  0.74802122  0.38637272  1
  O  O69  1  0.33117938  0.26984399  0.77188591  1
  O  O70  1  0.70886923  0.14170220  0.07463771  1
  O  O71  1  0.32509958  0.40569568  0.57907636  1
  O  O72  1  0.44542355  0.49223345  0.14789062  1
  O  O73  1  0.95742446  0.50537790  0.31250221  1
  O  O74  1  0.93529339  0.03672257  0.28374047  1
  O  O75  1  0.99129948  0.08259701  0.03479848  1
  O  O76  1  0.11392823  0.85336855  0.11673031  1
  O  O77  1  0.41704693  0.57445318  0.37979104  1
  O  O78  1  0.45796096  0.26332817  0.28860236  1
  O  O79  1  0.05280142  0.99500329  0.51325052  1
  O  O80  1  0.66797994  0.47998628  0.25211427  1
  O  O81  1  0.56241407  0.16878588  0.60827463  1
  O  O82  1  0.19715959  0.57202501  0.20013137  1
  O  O83  1  0.58704603  0.35338804  0.47439114  1
  O  O84  1  0.54951301  0.77577189  0.57746767  1
  O  O85  1  0.66090229  0.33208208  0.77837640  1
  O  O86  1  0.50816462  0.54041589  0.65854798  1
  O  O87  1  0.76713117  0.89941269  0.16464889  1
  O  O88  1  0.63995041  0.59383708  0.84855595  1
  O  O89  1  0.62146873  0.77304439  0.31516387  1
  O  O90  1  0.45492504  0.97851205  0.73060866  1
  O  O91  1  0.72182046  0.80121516  0.71910782  1
  O  O92  1  0.04470701  0.49751334  0.53373076  1
  O  O93  1  0.38446020  0.48330837  0.90894384  1
  O  O94  1  0.31429702  0.15281879  0.50971089  1
  O  O95  1  0.88306922  0.60837482  0.09100023  1
  O  O96  1  0.63178950  0.90804309  0.95386680  1
  O  O97  1  0.10193738  0.62555733  0.98556437  1
  O  O98  1  0.33991772  0.25833551  0.08830398  1
  O  O99  1  0.36317311  0.88832188  0.43753883  1
