# generated using pymatgen
data_Cr2O3
_symmetry_space_group_name_H-M   'P 1'
_cell_length_a   10.51759681
_cell_length_b   9.98348754
_cell_length_c   9.10728002
_cell_angle_alpha   92.35288619
_cell_angle_beta   87.30110170
_cell_angle_gamma   84.76791389
_symmetry_Int_Tables_number   1
_chemical_formula_structural   Cr2O3
_chemical_formula_sum   'Cr32 O48'
_cell_volume   950.25563855
_cell_formula_units_Z   16
loop_
 _symmetry_equiv_pos_site_id
 _symmetry_equiv_pos_as_xyz
  1  'x, y, z'
loop_
 _atom_site_type_symbol
 _atom_site_label
 _atom_site_symmetry_multiplicity
 _atom_site_fract_x
 _atom_site_fract_y
 _atom_site_fract_z
 _atom_site_occupancy
  Cr  Cr0  1  0.53272472  0.71716390  0.64553639  1
  Cr  Cr1  1  0.37590571  0.26584442  0.78206285  1
  Cr  Cr2  1  0.65904583  0.15629247  0.93711701  1
  Cr  Cr3  1  0.37869889  0.86989462  0.47225415  1
  Cr  Cr4  1  0.38625050  0.30397884  0.11415244  1
  Cr  Cr5  1  0.74391309  0.93661237  0.15022821  1
  Cr  Cr6  1  0.50727156  0.93288644  0.84508699  1
  Cr  Cr7  1  0.06011387  0.88546023  0.29702904  1
  Cr  Cr8  1  0.23479292  0.82345079  0.83803924  1
  Cr  Cr9  1  0.74984914  0.68113117  0.88562830  1
  Cr  Cr10  1  0.85830433  0.58719776  0.17819038  1
  Cr  Cr11  1  0.03660199  0.23654265  0.32093530  1
  Cr  Cr12  1  0.60325292  0.08750197  0.56130145  1
  Cr  Cr13  1  0.83287789  0.39023182  0.90085121  1
  Cr  Cr14  1  0.94871314  0.89302026  0.81329668  1
  Cr  Cr15  1  0.13111109  0.20277637  0.82923549  1
  Cr  Cr16  1  0.78290117  0.85944422  0.53677301  1
  Cr  Cr17  1  0.92224798  0.13002560  0.06499925  1
  Cr  Cr18  1  0.83992244  0.24322852  0.58876168  1
  Cr  Cr19  1  0.47978545  0.56983749  0.92223479  1
  Cr  Cr20  1  0.31448522  0.75052839  0.12752949  1
  Cr  Cr21  1  0.10448655  0.71515953  0.53583941  1
  Cr  Cr22  1  0.25254595  0.04847781  0.08141871  1
  Cr  Cr23  1  0.46797605  0.45986548  0.46779041  1
  Cr  Cr24  1  0.64822928  0.40684066  0.71583772  1
  Cr  Cr25  1  0.11876799  0.04872251  0.58633458  1
  Cr  Cr26  1  0.09441309  0.44835807  0.00353167  1
  Cr  Cr27  1  0.18672831  0.34569991  0.59071912  1
  Cr  Cr28  1  0.16659927  0.49811526  0.30894773  1
  Cr  Cr29  1  0.58521178  0.70139126  0.25627069  1
  Cr  Cr30  1  0.69158144  0.30664127  0.29523938  1
  Cr  Cr31  1  0.50656505  0.02487506  0.26074203  1
  O  O32  1  0.25349134  0.15720121  0.65965942  1
  O  O33  1  0.52889637  0.12277293  0.77211701  1
  O  O34  1  0.98948787  0.29037951  0.95096703  1
  O  O35  1  0.92094012  0.95771703  0.17601153  1
  O  O36  1  0.82466068  0.43624243  0.67805782  1
  O  O37  1  0.05407414  0.06643389  0.39736767  1
  O  O38  1  0.10395200  0.00584007  0.80988574  1
  O  O39  1  0.67086790  0.50927944  0.90630444  1
  O  O40  1  0.64833275  0.28996706  0.52883419  1
  O  O41  1  0.09077923  0.75334583  0.74483224  1
  O  O42  1  0.17083523  0.89360818  0.12233585  1
  O  O43  1  0.19349080  0.87604988  0.48953017  1
  O  O44  1  0.36240278  0.13881504  0.20762025  1
  O  O45  1  0.08647416  0.15980709  0.14220370  1
  O  O46  1  0.67928864  0.86155428  0.34001943  1
  O  O47  1  0.01121181  0.46407063  0.21136820  1
  O  O48  1  0.29669627  0.65959175  0.93040764  1
  O  O49  1  0.17260310  0.68803946  0.27919515  1
  O  O50  1  0.71556294  0.53773642  0.28001612  1
  O  O51  1  0.74974909  0.25133217  0.79468133  1
  O  O52  1  0.87065288  0.28179417  0.37691569  1
  O  O53  1  0.76443182  0.26580995  0.08073925  1
  O  O54  1  0.19261653  0.38241657  0.80750432  1
  O  O55  1  0.81066704  0.02325894  0.94886039  1
  O  O56  1  0.78877333  0.05136414  0.57970515  1
  O  O57  1  0.47874150  0.66506408  0.44508026  1
  O  O58  1  0.14276374  0.52840979  0.52355133  1
  O  O59  1  0.37996735  0.84013508  0.69117824  1
  O  O60  1  0.29093708  0.19360696  0.95421478  1
  O  O61  1  0.37240127  0.35478443  0.58456943  1
  O  O62  1  0.66167629  0.11607515  0.28753156  1
  O  O63  1  0.57915786  0.00550085  0.03995367  1
  O  O64  1  0.82226828  0.77782455  0.73074345  1
  O  O65  1  0.36008987  0.90739601  0.97011873  1
  O  O66  1  0.73332459  0.73632685  0.09592176  1
  O  O67  1  0.24533007  0.43925859  0.11417572  1
  O  O68  1  0.47256731  0.36352426  0.92852719  1
  O  O69  1  0.46656010  0.61772639  0.12938526  1
  O  O70  1  0.42262103  0.85445969  0.26137005  1
  O  O71  1  0.17543217  0.31047293  0.37876949  1
  O  O72  1  0.91237479  0.55658347  0.97006370  1
  O  O73  1  0.95442385  0.80409555  0.45051548  1
  O  O74  1  0.56658255  0.73976124  0.85695370  1
  O  O75  1  0.50059632  0.36737812  0.27884184  1
  O  O76  1  0.60775429  0.89355630  0.63213219  1
  O  O77  1  0.50742483  0.53534193  0.68121027  1
  O  O78  1  0.02444194  0.22873211  0.64395695  1
  O  O79  1  0.44773046  0.03998853  0.46599639  1
