# generated using pymatgen
data_Al2O3
_symmetry_space_group_name_H-M   'P 1'
_cell_length_a   10.54834411
_cell_length_b   10.40663669
_cell_length_c   9.90032114
_cell_angle_alpha   86.24352717
_cell_angle_beta   91.09527440
_cell_angle_gamma   90.85099667
_symmetry_Int_Tables_number   1
_chemical_formula_structural   Al2O3
_chemical_formula_sum   'Al40 O60'
_cell_volume   1084.15201264
_cell_formula_units_Z   20
loop_
 _symmetry_equiv_pos_site_id
 _symmetry_equiv_pos_as_xyz
  1  'x, y, z'
loop_
 _atom_site_type_symbol
 _atom_site_label
 _atom_site_symmetry_multiplicity
 _atom_site_fract_x
 _atom_site_fract_y
 _atom_site_fract_z
 _atom_site_occupancy
  Al  Al0  1  0.51101987  0.22956154  0.77627377  1
  Al  Al1  1  0.77029498  0.10385185  0.38539278  1
  Al  Al2  1  0.21844338  0.26063237  0.65416947  1
  Al  Al3  1  0.16617103  0.42840019  0.36415251  1
  Al  Al4  1  0.76928664  0.30479933  0.15633292  1
  Al  Al5  1  0.37630576  0.89467094  0.47645187  1
  Al  Al6  1  0.11446580  0.95808979  0.67137907  1
  Al  Al7  1  0.98809092  0.25893314  0.47568839  1
  Al  Al8  1  0.48781503  0.33814119  0.04675667  1
  Al  Al9  1  0.69930449  0.44416963  0.86505995  1
  Al  Al10  1  0.44570073  0.43654501  0.57572427  1
  Al  Al11  1  0.23230060  0.75448613  0.90243938  1
  Al  Al12  1  0.58500385  0.98372843  0.62857089  1
  Al  Al13  1  0.90700343  0.84302453  0.45226572  1
  Al  Al14  1  0.55804288  0.03804889  0.95242920  1
  Al  Al15  1  0.71098013  0.71666009  0.86753052  1
  Al  Al16  1  0.23602724  0.21841619  0.15234721  1
  Al  Al17  1  0.65110385  0.93415441  0.19554925  1
  Al  Al18  1  0.23976892  0.08743381  0.39285784  1
  Al  Al19  1  0.33100081  0.94189756  0.13551868  1
  Al  Al20  1  0.84457282  0.13559919  0.98687989  1
  Al  Al21  1  0.45096801  0.60686650  0.87986190  1
  Al  Al22  1  0.88904119  0.81746542  0.06175923  1
  Al  Al23  1  0.11667092  0.74082248  0.22155277  1
  Al  Al24  1  0.10696552  0.02613115  0.97241337  1
  Al  Al25  1  0.50138045  0.16950144  0.37878775  1
  Al  Al26  1  0.07233058  0.51497188  0.78667153  1
  Al  Al27  1  0.61278734  0.67471118  0.15835627  1
  Al  Al28  1  0.99401359  0.21419788  0.77493130  1
  Al  Al29  1  0.84592703  0.92581943  0.75627322  1
  Al  Al30  1  0.92859056  0.53781050  0.05124942  1
  Al  Al31  1  0.57380196  0.45756551  0.32204743  1
  Al  Al32  1  0.36251305  0.60831148  0.36224399  1
  Al  Al33  1  0.30934088  0.67476756  0.66124154  1
  Al  Al34  1  0.79930398  0.58502121  0.62517214  1
  Al  Al35  1  0.61446455  0.72612488  0.45531216  1
  Al  Al36  1  0.21988280  0.47709339  0.07065621  1
  Al  Al37  1  0.73314826  0.29160037  0.56966037  1
  Al  Al38  1  0.97120203  0.04469006  0.25144902  1
  Al  Al39  1  0.84183342  0.46110027  0.35310070  1
  O  O40  1  0.98380728  0.95727624  0.08962983  1
  O  O41  1  0.12797018  0.10798146  0.25455805  1
  O  O42  1  0.50820340  0.20109232  0.95554514  1
  O  O43  1  0.16647089  0.24716394  0.47923341  1
  O  O44  1  0.59912364  0.33886284  0.18620939  1
  O  O45  1  0.90091816  0.26472072  0.62769470  1
  O  O46  1  0.57019204  0.69754609  0.97362899  1
  O  O47  1  0.22219279  0.96438058  0.53876664  1
  O  O48  1  0.53807245  0.45585206  0.92531187  1
  O  O49  1  0.87186730  0.07897227  0.81568244  1
  O  O50  1  0.12542258  0.12211080  0.71501107  1
  O  O51  1  0.00515002  0.43010430  0.41907173  1
  O  O52  1  0.94588540  0.10619843  0.42067324  1
  O  O53  1  0.25525723  0.07670310  0.04337526  1
  O  O54  1  0.73930037  0.79623848  0.12719888  1
  O  O55  1  0.71012200  0.02731119  0.02602460  1
  O  O56  1  0.22159579  0.81549474  0.08763507  1
  O  O57  1  0.78359113  0.56549351  0.96601417  1
  O  O58  1  0.98457099  0.68463914  0.12162521  1
  O  O59  1  0.37180249  0.76930579  0.79479144  1
  O  O60  1  0.32011490  0.94188284  0.31076934  1
  O  O61  1  0.92099435  0.53897335  0.72981179  1
  O  O62  1  0.46401790  0.56275942  0.22194095  1
  O  O63  1  0.77215475  0.30220810  0.96765221  1
  O  O64  1  0.95672388  0.90056069  0.62020462  1
  O  O65  1  0.32188619  0.34202793  0.04435801  1
  O  O66  1  0.13703907  0.90240734  0.84902693  1
  O  O67  1  0.07139355  0.49782578  0.97021200  1
  O  O68  1  0.52571510  0.57261914  0.46760369  1
  O  O69  1  0.16105560  0.65889068  0.74608847  1
  O  O70  1  0.57194886  0.78916630  0.28957200  1
  O  O71  1  0.30629753  0.46383080  0.46197722  1
  O  O72  1  0.78559800  0.72395792  0.50430557  1
  O  O73  1  0.15948158  0.36525020  0.20442150  1
  O  O74  1  0.81449362  0.94293724  0.32843931  1
  O  O75  1  0.85838418  0.15861534  0.17098137  1
  O  O76  1  0.11708220  0.35922398  0.74064571  1
  O  O77  1  0.78457965  0.28539743  0.37537141  1
  O  O78  1  0.53851592  0.32749462  0.45322528  1
  O  O79  1  0.03676211  0.81888915  0.34859385  1
  O  O80  1  0.61867475  0.08107340  0.29276362  1
  O  O81  1  0.69608098  0.10928918  0.55226659  1
  O  O82  1  0.20527427  0.59756047  0.26765953  1
  O  O83  1  0.76578124  0.46337003  0.51682092  1
  O  O84  1  0.38182900  0.28949063  0.67650517  1
  O  O85  1  0.44451364  0.05968236  0.51068757  1
  O  O86  1  0.64170856  0.32974868  0.71960088  1
  O  O87  1  0.48934028  0.94149240  0.08357626  1
  O  O88  1  0.70771597  0.55982435  0.27633941  1
  O  O89  1  0.68866721  0.87394868  0.73862393  1
  O  O90  1  0.67622408  0.59801056  0.74229257  1
  O  O91  1  0.86697457  0.80132255  0.88731859  1
  O  O92  1  0.31838713  0.72577253  0.48593377  1
  O  O93  1  0.40713600  0.54301106  0.70840275  1
  O  O94  1  0.35363053  0.19374847  0.29114749  1
  O  O95  1  0.88513596  0.42760473  0.18305731  1
  O  O96  1  0.52833484  0.05890327  0.77361905  1
  O  O97  1  0.02412695  0.18089467  0.95607759  1
  O  O98  1  0.30344871  0.60211962  0.97738928  1
  O  O99  1  0.53264697  0.84294828  0.54170383  1
