# generated using pymatgen
data_SiGeN2
_symmetry_space_group_name_H-M   'P 1'
_cell_length_a   7.65674937
_cell_length_b   5.94538658
_cell_length_c   5.15012333
_cell_angle_alpha   90.00000000
_cell_angle_beta   106.02685550
_cell_angle_gamma   90.00000000
_symmetry_Int_Tables_number   1
_chemical_formula_structural   SiGeN2
_chemical_formula_sum   'Si4 Ge4 N8'
_cell_volume   225.33329841
_cell_formula_units_Z   4
loop_
 _symmetry_equiv_pos_site_id
 _symmetry_equiv_pos_as_xyz
  1  'x, y, z'
loop_
 _atom_site_type_symbol
 _atom_site_label
 _atom_site_symmetry_multiplicity
 _atom_site_fract_x
 _atom_site_fract_y
 _atom_site_fract_z
 _atom_site_occupancy
  Si  Si0  1  0.11126494  0.36142323  0.64089996  1
  Si  Si1  1  0.88873506  0.86142323  0.85910004  1
  Si  Si2  1  0.88873506  0.63857677  0.35910004  1
  Si  Si3  1  0.11126494  0.13857677  0.14089996  1
  Ge  Ge4  1  0.29806421  0.88199548  0.71590418  1
  Ge  Ge5  1  0.70193579  0.38199548  0.78409582  1
  Ge  Ge6  1  0.70193579  0.11800452  0.28409582  1
  Ge  Ge7  1  0.29806421  0.61800452  0.21590418  1
  N  N8  1  0.13473873  0.87958307  0.98076799  1
  N  N9  1  0.86526127  0.37958307  0.51923201  1
  N  N10  1  0.86526127  0.12041693  0.01923201  1
  N  N11  1  0.13473873  0.62041693  0.48076799  1
  N  N12  1  0.18664169  0.35975472  0.98648078  1
  N  N13  1  0.81335831  0.85975472  0.51351922  1
  N  N14  1  0.81335831  0.64024528  0.01351922  1
  N  N15  1  0.18664169  0.14024528  0.48648078  1
