# generated using pymatgen
data_ZrPb7N6
_symmetry_space_group_name_H-M   'P 1'
_cell_length_a   12.72619396
_cell_length_b   7.32880796
_cell_length_c   13.33826682
_cell_angle_alpha   90.00000000
_cell_angle_beta   90.00000000
_cell_angle_gamma   90.00000000
_symmetry_Int_Tables_number   1
_chemical_formula_structural   ZrPb7N6
_chemical_formula_sum   'Zr4 Pb28 N24'
_cell_volume   1244.03122353
_cell_formula_units_Z   4
loop_
 _symmetry_equiv_pos_site_id
 _symmetry_equiv_pos_as_xyz
  1  'x, y, z'
loop_
 _atom_site_type_symbol
 _atom_site_label
 _atom_site_symmetry_multiplicity
 _atom_site_fract_x
 _atom_site_fract_y
 _atom_site_fract_z
 _atom_site_occupancy
  Zr  Zr0  1  -0.00000000  0.83478689  0.75000000  1
  Zr  Zr1  1  0.50000000  0.66521311  0.25000000  1
  Zr  Zr2  1  -0.00000000  0.16521311  0.25000000  1
  Zr  Zr3  1  0.50000000  0.33478689  0.75000000  1
  Pb  Pb4  1  0.00453313  0.76748945  0.02526793  1
  Pb  Pb5  1  0.49546687  0.73251055  0.52526793  1
  Pb  Pb6  1  0.50453313  0.73251055  0.97473207  1
  Pb  Pb7  1  0.99546687  0.76748945  0.47473207  1
  Pb  Pb8  1  0.99546687  0.23251055  0.97473207  1
  Pb  Pb9  1  0.50453313  0.26748945  0.47473207  1
  Pb  Pb10  1  0.49546687  0.26748945  0.02526793  1
  Pb  Pb11  1  0.00453313  0.23251055  0.52526793  1
  Pb  Pb12  1  0.21661929  0.81079615  0.61633671  1
  Pb  Pb13  1  0.28338071  0.68920385  0.11633671  1
  Pb  Pb14  1  0.71661929  0.68920385  0.38366329  1
  Pb  Pb15  1  0.78338071  0.81079615  0.88366329  1
  Pb  Pb16  1  0.78338071  0.18920385  0.38366329  1
  Pb  Pb17  1  0.71661929  0.31079615  0.88366329  1
  Pb  Pb18  1  0.28338071  0.31079615  0.61633671  1
  Pb  Pb19  1  0.21661929  0.18920385  0.11633671  1
  Pb  Pb20  1  0.26354082  0.52217318  0.85943060  1
  Pb  Pb21  1  0.23645918  0.97782682  0.35943060  1
  Pb  Pb22  1  0.76354082  0.97782682  0.14056940  1
  Pb  Pb23  1  0.73645918  0.52217318  0.64056940  1
  Pb  Pb24  1  0.73645918  0.47782682  0.14056940  1
  Pb  Pb25  1  0.76354082  0.02217318  0.64056940  1
  Pb  Pb26  1  0.23645918  0.02217318  0.85943060  1
  Pb  Pb27  1  0.26354082  0.47782682  0.35943060  1
  Pb  Pb28  1  -0.00000000  0.41263817  0.75000000  1
  Pb  Pb29  1  0.50000000  0.08736183  0.25000000  1
  Pb  Pb30  1  -0.00000000  0.58736183  0.25000000  1
  Pb  Pb31  1  0.50000000  0.91263817  0.75000000  1
  N  N32  1  0.11960459  0.64441000  0.76652961  1
  N  N33  1  0.38039541  0.85559000  0.26652961  1
  N  N34  1  0.61960459  0.85559000  0.23347039  1
  N  N35  1  0.88039541  0.64441000  0.73347039  1
  N  N36  1  0.88039541  0.35559000  0.23347039  1
  N  N37  1  0.61960459  0.14441000  0.73347039  1
  N  N38  1  0.38039541  0.14441000  0.76652961  1
  N  N39  1  0.11960459  0.35559000  0.26652961  1
  N  N40  1  0.17903465  0.71372262  0.45618698  1
  N  N41  1  0.32096535  0.78627738  0.95618698  1
  N  N42  1  0.67903465  0.78627738  0.54381302  1
  N  N43  1  0.82096535  0.71372262  0.04381302  1
  N  N44  1  0.82096535  0.28627738  0.54381302  1
  N  N45  1  0.67903465  0.21372262  0.04381302  1
  N  N46  1  0.32096535  0.21372262  0.45618698  1
  N  N47  1  0.17903465  0.28627738  0.95618698  1
  N  N48  1  0.45551853  0.45483482  0.61077170  1
  N  N49  1  0.04448147  0.04516518  0.11077170  1
  N  N50  1  0.95551853  0.04516518  0.38922830  1
  N  N51  1  0.54448147  0.45483482  0.88922830  1
  N  N52  1  0.54448147  0.54516518  0.38922830  1
  N  N53  1  0.95551853  0.95483482  0.88922830  1
  N  N54  1  0.04448147  0.95483482  0.61077170  1
  N  N55  1  0.45551853  0.54516518  0.11077170  1
