# generated using pymatgen
data_Ca3Y3N5
_symmetry_space_group_name_H-M   'P 1'
_cell_length_a   6.77593119
_cell_length_b   7.04992773
_cell_length_c   9.27174103
_cell_angle_alpha   102.43271670
_cell_angle_beta   112.51368159
_cell_angle_gamma   103.18246572
_symmetry_Int_Tables_number   1
_chemical_formula_structural   Ca3Y3N5
_chemical_formula_sum   'Ca6 Y6 N10'
_cell_volume   375.14861893
_cell_formula_units_Z   2
loop_
 _symmetry_equiv_pos_site_id
 _symmetry_equiv_pos_as_xyz
  1  'x, y, z'
loop_
 _atom_site_type_symbol
 _atom_site_label
 _atom_site_symmetry_multiplicity
 _atom_site_fract_x
 _atom_site_fract_y
 _atom_site_fract_z
 _atom_site_occupancy
  Ca  Ca0  1  0.79070732  0.43770971  0.53936869  1
  Ca  Ca1  1  0.20929268  0.56229029  0.46063131  1
  Ca  Ca2  1  0.74889294  0.79520419  0.86410516  1
  Ca  Ca3  1  0.25110706  0.20479581  0.13589484  1
  Ca  Ca4  1  0.75279687  0.61132054  0.17432891  1
  Ca  Ca5  1  0.24720313  0.38867946  0.82567109  1
  Y  Y6  1  0.78974757  0.26785768  0.89017538  1
  Y  Y7  1  0.21025243  0.73214232  0.10982462  1
  Y  Y8  1  0.77212611  0.96980337  0.54968946  1
  Y  Y9  1  0.22787389  0.03019663  0.45031054  1
  Y  Y10  1  0.26968481  0.91010609  0.80570293  1
  Y  Y11  1  0.73031519  0.08989391  0.19429707  1
  N  N12  1  0.00616243  0.07814298  0.83246713  1
  N  N13  1  0.99383757  0.92185702  0.16753287  1
  N  N14  1  0.93345272  0.73759749  0.47486037  1
  N  N15  1  0.06654728  0.26240251  0.52513963  1
  N  N16  1  0.92076982  0.54464927  0.82787385  1
  N  N17  1  0.07923018  0.45535073  0.17212615  1
  N  N18  1  0.47945813  0.91143176  0.64989549  1
  N  N19  1  0.52054187  0.08856824  0.35010451  1
  N  N20  1  0.46836878  0.76431737  0.99470783  1
  N  N21  1  0.53163122  0.23568263  0.00529217  1
