# generated using pymatgen
data_Sc5(GeN3)3
_symmetry_space_group_name_H-M   'P 1'
_cell_length_a   7.62975922
_cell_length_b   11.25524247
_cell_length_c   15.18978960
_cell_angle_alpha   90.00000000
_cell_angle_beta   90.00000000
_cell_angle_gamma   137.52638047
_symmetry_Int_Tables_number   1
_chemical_formula_structural   Sc5(GeN3)3
_chemical_formula_sum   'Sc20 Ge12 N36'
_cell_volume   880.81047947
_cell_formula_units_Z   4
loop_
 _symmetry_equiv_pos_site_id
 _symmetry_equiv_pos_as_xyz
  1  'x, y, z'
loop_
 _atom_site_type_symbol
 _atom_site_label
 _atom_site_symmetry_multiplicity
 _atom_site_fract_x
 _atom_site_fract_y
 _atom_site_fract_z
 _atom_site_occupancy
  Sc  Sc0  1  -0.00000000  0.49745263  0.87302648  1
  Sc  Sc1  1  0.00000000  0.50254737  0.12697352  1
  Sc  Sc2  1  0.00000000  0.00254737  0.37302648  1
  Sc  Sc3  1  -0.00000000  0.99745263  0.62697352  1
  Sc  Sc4  1  0.38411397  0.95464531  0.89208643  1
  Sc  Sc5  1  0.38411397  0.42946966  0.10791357  1
  Sc  Sc6  1  0.38411397  0.92946966  0.39208643  1
  Sc  Sc7  1  0.38411397  0.45464531  0.60791357  1
  Sc  Sc8  1  0.61588603  0.04535469  0.10791357  1
  Sc  Sc9  1  0.61588603  0.57053034  0.89208643  1
  Sc  Sc10  1  0.61588603  0.07053034  0.60791357  1
  Sc  Sc11  1  0.61588603  0.54535469  0.39208643  1
  Sc  Sc12  1  -0.00000000  0.46840243  0.59843227  1
  Sc  Sc13  1  0.00000000  0.53159757  0.40156773  1
  Sc  Sc14  1  0.00000000  0.03159757  0.09843227  1
  Sc  Sc15  1  -0.00000000  0.96840243  0.90156773  1
  Sc  Sc16  1  0.52912293  0.26456196  0.00000000  1
  Sc  Sc17  1  0.52912293  0.76456196  0.50000000  1
  Sc  Sc18  1  0.47087707  0.73543804  0.00000000  1
  Sc  Sc19  1  0.47087707  0.23543804  0.50000000  1
  Ge  Ge20  1  -0.00000000  0.75469126  0.04532537  1
  Ge  Ge21  1  0.00000000  0.24530874  0.95467463  1
  Ge  Ge22  1  0.00000000  0.74530874  0.54532537  1
  Ge  Ge23  1  -0.00000000  0.25469126  0.45467463  1
  Ge  Ge24  1  0.00000000  0.21426507  0.74536040  1
  Ge  Ge25  1  -0.00000000  0.78573493  0.25463960  1
  Ge  Ge26  1  -0.00000000  0.28573493  0.24536040  1
  Ge  Ge27  1  0.00000000  0.71426507  0.75463960  1
  Ge  Ge28  1  0.50000000  0.76326187  0.75000000  1
  Ge  Ge29  1  0.50000000  0.73673813  0.25000000  1
  Ge  Ge30  1  0.50000000  0.23673813  0.25000000  1
  Ge  Ge31  1  0.50000000  0.26326187  0.75000000  1
  N  N32  1  -0.00000000  0.31180711  0.64822244  1
  N  N33  1  0.00000000  0.68819289  0.35177756  1
  N  N34  1  0.00000000  0.18819289  0.14822244  1
  N  N35  1  -0.00000000  0.81180711  0.85177756  1
  N  N36  1  -0.00000000  0.30406291  0.84241338  1
  N  N37  1  0.00000000  0.69593709  0.15758662  1
  N  N38  1  0.00000000  0.19593709  0.34241338  1
  N  N39  1  -0.00000000  0.80406291  0.65758662  1
  N  N40  1  0.74058750  0.48670069  0.79624123  1
  N  N41  1  0.74058750  0.25388681  0.20375877  1
  N  N42  1  0.74058750  0.75388681  0.29624123  1
  N  N43  1  0.74058750  0.98670069  0.70375877  1
  N  N44  1  0.25941250  0.51329931  0.20375877  1
  N  N45  1  0.25941250  0.74611319  0.79624123  1
  N  N46  1  0.25941250  0.24611319  0.70375877  1
  N  N47  1  0.25941250  0.01329931  0.29624123  1
  N  N48  1  0.45628317  0.16690228  0.86045672  1
  N  N49  1  0.45628317  0.28938090  0.13954328  1
  N  N50  1  0.45628317  0.78938090  0.36045672  1
  N  N51  1  0.45628317  0.66690228  0.63954328  1
  N  N52  1  0.54371683  0.83309772  0.13954328  1
  N  N53  1  0.54371683  0.71061910  0.86045672  1
  N  N54  1  0.54371683  0.21061910  0.63954328  1
  N  N55  1  0.54371683  0.33309772  0.36045672  1
  N  N56  1  0.28410442  0.99647803  0.02118712  1
  N  N57  1  0.28410442  0.28762739  0.97881288  1
  N  N58  1  0.28410442  0.78762739  0.52118712  1
  N  N59  1  0.28410442  0.49647803  0.47881288  1
  N  N60  1  0.71589558  0.00352197  0.97881288  1
  N  N61  1  0.71589558  0.71237261  0.02118712  1
  N  N62  1  0.71589558  0.21237261  0.47881288  1
  N  N63  1  0.71589558  0.50352197  0.52118712  1
  N  N64  1  0.00000000  0.61051625  0.98739442  1
  N  N65  1  -0.00000000  0.38948375  0.01260558  1
  N  N66  1  -0.00000000  0.88948375  0.48739442  1
  N  N67  1  0.00000000  0.11051625  0.51260558  1
