# generated using pymatgen
data_Ca2PbN2
_symmetry_space_group_name_H-M   'P 1'
_cell_length_a   4.04352344
_cell_length_b   4.04427376
_cell_length_c   6.71422887
_cell_angle_alpha   89.99362791
_cell_angle_beta   90.00084260
_cell_angle_gamma   120.01450601
_symmetry_Int_Tables_number   1
_chemical_formula_structural   Ca2PbN2
_chemical_formula_sum   'Ca2 Pb1 N2'
_cell_volume   95.07444070
_cell_formula_units_Z   1
loop_
 _symmetry_equiv_pos_site_id
 _symmetry_equiv_pos_as_xyz
  1  'x, y, z'
loop_
 _atom_site_type_symbol
 _atom_site_label
 _atom_site_symmetry_multiplicity
 _atom_site_fract_x
 _atom_site_fract_y
 _atom_site_fract_z
 _atom_site_occupancy
  Ca  Ca0  1  0.66666617  0.33336900  0.15891935  1
  Ca  Ca1  1  0.33333383  0.66663100  0.84108065  1
  Pb  Pb2  1  0.00000000  0.00000000  0.50000000  1
  N  N3  1  0.66670542  0.33336502  0.77203509  1
  N  N4  1  0.33329458  0.66663498  0.22796491  1
