# generated using pymatgen
data_Zr2AgN3
_symmetry_space_group_name_H-M   'P 1'
_cell_length_a   3.34355289
_cell_length_b   3.34355220
_cell_length_c   26.70921828
_cell_angle_alpha   90.00000000
_cell_angle_beta   90.00000000
_cell_angle_gamma   120.00000671
_symmetry_Int_Tables_number   1
_chemical_formula_structural   Zr2AgN3
_chemical_formula_sum   'Zr6 Ag3 N9'
_cell_volume   258.58783214
_cell_formula_units_Z   3
loop_
 _symmetry_equiv_pos_site_id
 _symmetry_equiv_pos_as_xyz
  1  'x, y, z'
loop_
 _atom_site_type_symbol
 _atom_site_label
 _atom_site_symmetry_multiplicity
 _atom_site_fract_x
 _atom_site_fract_y
 _atom_site_fract_z
 _atom_site_occupancy
  Zr  Zr0  1  0.66605571  0.98968495  0.11256900  1
  Zr  Zr1  1  0.32362924  0.33394429  0.77923500  1
  Zr  Zr2  1  0.01031505  0.67637076  0.44590200  1
  Zr  Zr3  1  0.33394429  0.32362924  0.22076500  1
  Zr  Zr4  1  0.98968495  0.66605571  0.88743100  1
  Zr  Zr5  1  0.67637076  0.01031505  0.55409800  1
  Ag  Ag6  1  0.00000000  0.67257128  0.66666700  1
  Ag  Ag7  1  0.67257128  0.00000000  0.33333300  1
  Ag  Ag8  1  0.32742872  0.32742872  -0.00000000  1
  N  N9  1  -0.00000000  0.65660940  0.16666700  1
  N  N10  1  0.65660940  0.00000000  0.83333300  1
  N  N11  1  0.34339060  0.34339060  0.50000000  1
  N  N12  1  0.67696521  0.00979617  0.41223186  1
  N  N13  1  0.33283096  0.32303479  0.07889786  1
  N  N14  1  0.99020383  0.66716904  0.74556486  1
  N  N15  1  0.32303479  0.33283096  0.92110214  1
  N  N16  1  0.00979617  0.67696521  0.58776814  1
  N  N17  1  0.66716904  0.99020383  0.25443514  1
