# generated using pymatgen
data_Al2O3
_symmetry_space_group_name_H-M   'P 1'
_cell_length_a   10.14585826
_cell_length_b   10.99536717
_cell_length_c   10.43612966
_cell_angle_alpha   88.88291200
_cell_angle_beta   89.86006880
_cell_angle_gamma   89.29244071
_symmetry_Int_Tables_number   1
_chemical_formula_structural   Al2O3
_chemical_formula_sum   'Al40 O60'
_cell_volume   1163.91502623
_cell_formula_units_Z   20
loop_
 _symmetry_equiv_pos_site_id
 _symmetry_equiv_pos_as_xyz
  1  'x, y, z'
loop_
 _atom_site_type_symbol
 _atom_site_label
 _atom_site_symmetry_multiplicity
 _atom_site_fract_x
 _atom_site_fract_y
 _atom_site_fract_z
 _atom_site_occupancy
  Al  Al0  1  0.20145701  0.42813630  0.35831181  1
  Al  Al1  1  0.74222418  0.10695214  0.74365296  1
  Al  Al2  1  0.10345884  0.68708442  0.41323125  1
  Al  Al3  1  0.32410886  0.67342869  0.87297193  1
  Al  Al4  1  0.60698469  0.96236687  0.54686826  1
  Al  Al5  1  0.03024380  0.18865795  0.71437002  1
  Al  Al6  1  0.19236038  0.13528717  0.44266814  1
  Al  Al7  1  0.34592622  0.03768766  0.66772109  1
  Al  Al8  1  0.13711739  0.22544038  0.19985824  1
  Al  Al9  1  0.87922457  0.48141390  0.69774222  1
  Al  Al10  1  0.77010616  0.65992722  0.90553383  1
  Al  Al11  1  0.65899577  0.13199398  0.99339786  1
  Al  Al12  1  0.72426126  0.12049835  0.40433737  1
  Al  Al13  1  0.56819079  0.87135886  0.81758462  1
  Al  Al14  1  0.05891677  0.62031654  0.92902779  1
  Al  Al15  1  0.92167024  0.27908447  0.92366354  1
  Al  Al16  1  0.28791643  0.40492684  0.87615049  1
  Al  Al17  1  0.17702557  0.92067289  0.21549481  1
  Al  Al18  1  0.41690644  0.94376698  0.07773155  1
  Al  Al19  1  0.14721037  0.79064873  0.66262797  1
  Al  Al20  1  0.43071402  0.27421233  0.45586495  1
  Al  Al21  1  0.25331288  0.51102537  0.09919325  1
  Al  Al22  1  0.56922811  0.66532811  0.47713156  1
  Al  Al23  1  0.90985429  0.04491281  0.20645789  1
  Al  Al24  1  0.31885037  0.81772072  0.47181859  1
  Al  Al25  1  0.92740728  0.99430264  0.55476234  1
  Al  Al26  1  0.70452350  0.88757796  0.06379340  1
  Al  Al27  1  0.56795691  0.43896117  0.01276631  1
  Al  Al28  1  0.65270246  0.43415271  0.56757850  1
  Al  Al29  1  0.56343225  0.60547250  0.76319195  1
  Al  Al30  1  0.48962641  0.53137123  0.27990063  1
  Al  Al31  1  0.83272648  0.75054286  0.60787373  1
  Al  Al32  1  0.56333749  0.85259490  0.30652781  1
  Al  Al33  1  0.89097150  0.55647139  0.43726619  1
  Al  Al34  1  0.20482413  0.09867994  0.95563813  1
  Al  Al35  1  0.71063167  0.39706675  0.28283943  1
  Al  Al36  1  0.43627023  0.23078171  0.12197329  1
  Al  Al37  1  0.96296915  0.47298804  0.14734439  1
  Al  Al38  1  0.90055532  0.75965197  0.18662674  1
  Al  Al39  1  0.38177969  0.43030542  0.64059160  1
  O  O40  1  0.26168163  0.20788561  0.07358870  1
  O  O41  1  0.45494425  0.74531537  0.79535618  1
  O  O42  1  0.94273373  0.61500861  0.60593129  1
  O  O43  1  0.70182499  0.74267571  0.76469935  1
  O  O44  1  0.88290827  0.39101493  0.03220002  1
  O  O45  1  0.82641722  0.42369690  0.53118843  1
  O  O46  1  0.15286779  0.27286744  0.36343904  1
  O  O47  1  0.95585820  0.33811357  0.75353808  1
  O  O48  1  0.94230514  0.70910825  0.34825429  1
  O  O49  1  0.51715845  0.68203163  0.31689018  1
  O  O50  1  0.58500849  0.28007652  0.02684381  1
  O  O51  1  0.08377081  0.11365838  0.57046080  1
  O  O52  1  0.90397895  0.07405678  0.70301387  1
  O  O53  1  0.38555051  0.52714731  0.79858527  1
  O  O54  1  0.76658628  0.90037369  0.57678252  1
  O  O55  1  0.38603124  0.41256583  0.02356726  1
  O  O56  1  0.15861670  0.72004967  0.81831256  1
  O  O57  1  0.49596761  0.08482049  0.06403146  1
  O  O58  1  0.69761256  0.49045718  0.72309147  1
  O  O59  1  0.12536749  0.40907453  0.17899671  1
  O  O60  1  0.43505804  0.26185844  0.28759885  1
  O  O61  1  0.99585227  0.84523473  0.60177335  1
  O  O62  1  0.20182585  0.80625082  0.34043310  1
  O  O63  1  0.77094816  0.20578236  0.87750880  1
  O  O64  1  0.66796622  0.00563630  0.86036466  1
  O  O65  1  0.49871765  0.82227274  0.48755957  1
  O  O66  1  0.73719799  0.66454854  0.49367121  1
  O  O67  1  0.07874105  0.52845532  0.40889410  1
  O  O68  1  0.25907347  0.91032197  0.60179344  1
  O  O69  1  0.54338698  0.85789202  0.99590280  1
  O  O70  1  0.60889995  0.00052976  0.37961784  1
  O  O71  1  0.32039254  0.51533539  0.25906634  1
  O  O72  1  0.85322209  0.48662131  0.27952851  1
  O  O73  1  0.81808713  0.77392990  0.01260418  1
  O  O74  1  0.00060720  0.63047663  0.09722887  1
  O  O75  1  0.59825349  0.46306241  0.40147093  1
  O  O76  1  -0.00198778  0.90078051  0.18081538  1
  O  O77  1  0.50235826  0.57115791  0.59836389  1
  O  O78  1  0.06252733  0.17341752  0.88585215  1
  O  O79  1  0.71818345  0.82295735  0.22293087  1
  O  O80  1  0.28835391  0.65842247  0.03492451  1
  O  O81  1  -0.00792352  0.16837846  0.13760342  1
  O  O82  1  0.35134178  0.13618179  0.52218049  1
  O  O83  1  0.72370777  0.24389127  0.30571972  1
  O  O84  1  0.68158118  0.12054711  0.57660930  1
  O  O85  1  0.23983729  0.95930638  0.05433183  1
  O  O86  1  0.41242969  0.89732951  0.23667208  1
  O  O87  1  0.88469709  0.04755399  0.38612186  1
  O  O88  1  0.15345628  0.48307109  0.94231193  1
  O  O89  1  0.17803643  0.06034384  0.29605880  1
  O  O90  1  0.22296415  0.69385180  0.54563982  1
  O  O91  1  0.29441210  0.06350844  0.82091046  1
  O  O92  1  0.60413398  0.47556642  0.16908404  1
  O  O93  1  0.50466443  0.96651723  0.68408825  1
  O  O94  1  0.28003367  0.32827449  0.73576682  1
  O  O95  1  0.91155360  0.58570137  0.84712635  1
  O  O96  1  0.62062663  0.57372339  0.93237647  1
  O  O97  1  0.52349649  0.32664280  0.59647067  1
  O  O98  1  0.32082646  0.40482189  0.48400501  1
  O  O99  1  0.76359104  0.03710006  0.10159760  1
