# generated using pymatgen
data_VNiO3
_symmetry_space_group_name_H-M   'P 1'
_cell_length_a   5.05120507
_cell_length_b   5.49832581
_cell_length_c   5.04052930
_cell_angle_alpha   118.06656622
_cell_angle_beta   119.57518788
_cell_angle_gamma   62.62752538
_symmetry_Int_Tables_number   1
_chemical_formula_structural   VNiO3
_chemical_formula_sum   'V2 Ni2 O6'
_cell_volume   102.60262461
_cell_formula_units_Z   2
loop_
 _symmetry_equiv_pos_site_id
 _symmetry_equiv_pos_as_xyz
  1  'x, y, z'
loop_
 _atom_site_type_symbol
 _atom_site_label
 _atom_site_symmetry_multiplicity
 _atom_site_fract_x
 _atom_site_fract_y
 _atom_site_fract_z
 _atom_site_occupancy
  V  V0  1  0.64967336  0.05300750  0.34400183  1
  V  V1  1  0.34930934  0.94152676  0.64725139  1
  Ni  Ni2  1  0.84834968  0.44983350  0.14887222  1
  Ni  Ni3  1  0.14648088  0.56542307  0.85415571  1
  O  O4  1  0.28312023  0.23734457  0.07878608  1
  O  O5  1  0.74925758  0.75848133  0.95918573  1
  O  O6  1  0.44890494  0.76079772  0.25455374  1
  O  O7  1  0.55843636  0.23233782  0.71677056  1
  O  O8  1  0.91842717  0.23854579  0.43942880  1
  O  O9  1  0.04804047  0.76270196  0.55699394  1
