# generated using pymatgen
data_Ga2Sn3N4
_symmetry_space_group_name_H-M   'P 1'
_cell_length_a   8.01248760
_cell_length_b   8.90550392
_cell_length_c   5.62260778
_cell_angle_alpha   89.99999722
_cell_angle_beta   77.59933804
_cell_angle_gamma   123.76077116
_symmetry_Int_Tables_number   1
_chemical_formula_structural   Ga2Sn3N4
_chemical_formula_sum   'Ga4 Sn6 N8'
_cell_volume   322.22630287
_cell_formula_units_Z   2
loop_
 _symmetry_equiv_pos_site_id
 _symmetry_equiv_pos_as_xyz
  1  'x, y, z'
loop_
 _atom_site_type_symbol
 _atom_site_label
 _atom_site_symmetry_multiplicity
 _atom_site_fract_x
 _atom_site_fract_y
 _atom_site_fract_z
 _atom_site_occupancy
  Ga  Ga0  1  0.46005230  0.12915479  0.58323638  1
  Ga  Ga1  1  0.53994770  0.66910249  0.91676362  1
  Ga  Ga2  1  0.53994770  0.87084521  0.41676362  1
  Ga  Ga3  1  0.46005230  0.33089751  0.08323638  1
  Sn  Sn4  1  0.25041778  0.85767919  0.13076585  1
  Sn  Sn5  1  0.74958222  0.60726141  0.36923415  1
  Sn  Sn6  1  0.74958222  0.14232081  0.86923415  1
  Sn  Sn7  1  0.25041778  0.39273859  0.63076585  1
  Sn  Sn8  1  0.00000000  0.62680130  0.75000000  1
  Sn  Sn9  1  -0.00000000  0.37319870  0.25000000  1
  N  N10  1  0.28201327  0.88047691  0.50747191  1
  N  N11  1  0.71798673  0.59846364  0.99252809  1
  N  N12  1  0.71798673  0.11952309  0.49252809  1
  N  N13  1  0.28201327  0.40153636  0.00747191  1
  N  N14  1  0.46272427  0.13978314  0.93281927  1
  N  N15  1  0.53727573  0.67705888  0.56718073  1
  N  N16  1  0.53727573  0.86021686  0.06718073  1
  N  N17  1  0.46272427  0.32294112  0.43281927  1
