# generated using pymatgen
data_Sn7GeN6
_symmetry_space_group_name_H-M   'P 1'
_cell_length_a   12.40048638
_cell_length_b   7.01955778
_cell_length_c   12.18963009
_cell_angle_alpha   90.00000000
_cell_angle_beta   90.00000000
_cell_angle_gamma   90.00000000
_symmetry_Int_Tables_number   1
_chemical_formula_structural   Sn7GeN6
_chemical_formula_sum   'Sn28 Ge4 N24'
_cell_volume   1061.05769540
_cell_formula_units_Z   4
loop_
 _symmetry_equiv_pos_site_id
 _symmetry_equiv_pos_as_xyz
  1  'x, y, z'
loop_
 _atom_site_type_symbol
 _atom_site_label
 _atom_site_symmetry_multiplicity
 _atom_site_fract_x
 _atom_site_fract_y
 _atom_site_fract_z
 _atom_site_occupancy
  Sn  Sn0  1  0.00179006  0.76567413  0.03175905  1
  Sn  Sn1  1  0.49820994  0.73432587  0.53175905  1
  Sn  Sn2  1  0.50179006  0.73432587  0.96824095  1
  Sn  Sn3  1  0.99820994  0.76567413  0.46824095  1
  Sn  Sn4  1  0.99820994  0.23432587  0.96824095  1
  Sn  Sn5  1  0.50179006  0.26567413  0.46824095  1
  Sn  Sn6  1  0.49820994  0.26567413  0.03175905  1
  Sn  Sn7  1  0.00179006  0.23432587  0.53175905  1
  Sn  Sn8  1  0.21482281  0.80402590  0.62665560  1
  Sn  Sn9  1  0.28517719  0.69597410  0.12665560  1
  Sn  Sn10  1  0.71482281  0.69597410  0.37334440  1
  Sn  Sn11  1  0.78517719  0.80402590  0.87334440  1
  Sn  Sn12  1  0.78517719  0.19597410  0.37334440  1
  Sn  Sn13  1  0.71482281  0.30402590  0.87334440  1
  Sn  Sn14  1  0.28517719  0.30402590  0.62665560  1
  Sn  Sn15  1  0.21482281  0.19597410  0.12665560  1
  Sn  Sn16  1  0.25516202  0.53888766  0.85766580  1
  Sn  Sn17  1  0.24483798  0.96111234  0.35766580  1
  Sn  Sn18  1  0.75516202  0.96111234  0.14233420  1
  Sn  Sn19  1  0.74483798  0.53888766  0.64233420  1
  Sn  Sn20  1  0.74483798  0.46111234  0.14233420  1
  Sn  Sn21  1  0.75516202  0.03888766  0.64233420  1
  Sn  Sn22  1  0.24483798  0.03888766  0.85766580  1
  Sn  Sn23  1  0.25516202  0.46111234  0.35766580  1
  Sn  Sn24  1  -0.00000000  0.42261057  0.75000000  1
  Sn  Sn25  1  0.50000000  0.07738943  0.25000000  1
  Sn  Sn26  1  0.00000000  0.57738943  0.25000000  1
  Sn  Sn27  1  0.50000000  0.92261057  0.75000000  1
  Ge  Ge28  1  -0.00000000  0.84395766  0.75000000  1
  Ge  Ge29  1  0.50000000  0.65604234  0.25000000  1
  Ge  Ge30  1  0.00000000  0.15604234  0.25000000  1
  Ge  Ge31  1  0.50000000  0.34395766  0.75000000  1
  N  N32  1  0.11283589  0.65638075  0.75965232  1
  N  N33  1  0.38716411  0.84361925  0.25965232  1
  N  N34  1  0.61283589  0.84361925  0.24034768  1
  N  N35  1  0.88716411  0.65638075  0.74034768  1
  N  N36  1  0.88716411  0.34361925  0.24034768  1
  N  N37  1  0.61283589  0.15638075  0.74034768  1
  N  N38  1  0.38716411  0.15638075  0.75965232  1
  N  N39  1  0.11283589  0.34361925  0.25965232  1
  N  N40  1  0.17833487  0.71148821  0.45746566  1
  N  N41  1  0.32166513  0.78851179  0.95746566  1
  N  N42  1  0.67833487  0.78851179  0.54253434  1
  N  N43  1  0.82166513  0.71148821  0.04253434  1
  N  N44  1  0.82166513  0.28851179  0.54253434  1
  N  N45  1  0.67833487  0.21148821  0.04253434  1
  N  N46  1  0.32166513  0.21148821  0.45746566  1
  N  N47  1  0.17833487  0.28851179  0.95746566  1
  N  N48  1  0.46048345  0.45114031  0.61400350  1
  N  N49  1  0.03951655  0.04885969  0.11400350  1
  N  N50  1  0.96048345  0.04885969  0.38599650  1
  N  N51  1  0.53951655  0.45114031  0.88599650  1
  N  N52  1  0.53951655  0.54885969  0.38599650  1
  N  N53  1  0.96048345  0.95114031  0.88599650  1
  N  N54  1  0.03951655  0.95114031  0.61400350  1
  N  N55  1  0.46048345  0.54885969  0.11400350  1
