# generated using pymatgen
data_Mg2BiN3
_symmetry_space_group_name_H-M   'P 1'
_cell_length_a   6.08991096
_cell_length_b   6.05610877
_cell_length_c   5.59985135
_cell_angle_alpha   90.00000000
_cell_angle_beta   90.00000000
_cell_angle_gamma   119.81656397
_symmetry_Int_Tables_number   1
_chemical_formula_structural   Mg2BiN3
_chemical_formula_sum   'Mg4 Bi2 N6'
_cell_volume   179.18907824
_cell_formula_units_Z   2
loop_
 _symmetry_equiv_pos_site_id
 _symmetry_equiv_pos_as_xyz
  1  'x, y, z'
loop_
 _atom_site_type_symbol
 _atom_site_label
 _atom_site_symmetry_multiplicity
 _atom_site_fract_x
 _atom_site_fract_y
 _atom_site_fract_z
 _atom_site_occupancy
  Mg  Mg0  1  0.34355898  0.33506151  0.49250649  1
  Mg  Mg1  1  0.65644102  0.99150154  0.49250649  1
  Mg  Mg2  1  0.65644102  0.66493849  0.99250649  1
  Mg  Mg3  1  0.34355898  0.00849846  0.99250649  1
  Bi  Bi4  1  0.00000000  0.68220224  0.48435910  1
  Bi  Bi5  1  1.00000000  0.31779776  0.98435910  1
  N  N6  1  0.33795490  0.33347323  0.86926735  1
  N  N7  1  0.66204510  0.99551833  0.86926735  1
  N  N8  1  0.66204510  0.66652677  0.36926735  1
  N  N9  1  0.33795490  0.00448167  0.36926735  1
  N  N10  1  1.00000000  0.66970423  0.88009223  1
  N  N11  1  0.00000000  0.33029577  0.38009223  1
