# generated using pymatgen
data_ZnO
_symmetry_space_group_name_H-M   'P 1'
_cell_length_a   10.08984376
_cell_length_b   10.78156610
_cell_length_c   9.99263732
_cell_angle_alpha   88.50685495
_cell_angle_beta   86.84139842
_cell_angle_gamma   89.67767655
_symmetry_Int_Tables_number   1
_chemical_formula_structural   ZnO
_chemical_formula_sum   'Zn40 O40'
_cell_volume   1085.01273124
_cell_formula_units_Z   40
loop_
 _symmetry_equiv_pos_site_id
 _symmetry_equiv_pos_as_xyz
  1  'x, y, z'
loop_
 _atom_site_type_symbol
 _atom_site_label
 _atom_site_symmetry_multiplicity
 _atom_site_fract_x
 _atom_site_fract_y
 _atom_site_fract_z
 _atom_site_occupancy
  Zn  Zn0  1  0.52758657  0.58387273  0.82014681  1
  Zn  Zn1  1  0.68717354  0.48334569  0.09310647  1
  Zn  Zn2  1  0.59861738  0.34956511  0.60092942  1
  Zn  Zn3  1  0.23186076  0.08194537  0.43308366  1
  Zn  Zn4  1  0.49873813  0.13669202  0.14825022  1
  Zn  Zn5  1  0.44780560  0.87840509  0.55733049  1
  Zn  Zn6  1  0.45903548  0.40570978  0.32228366  1
  Zn  Zn7  1  0.15188159  0.56056504  0.20068764  1
  Zn  Zn8  1  0.08368160  0.51834130  0.53674732  1
  Zn  Zn9  1  0.76406406  0.19025621  0.78204307  1
  Zn  Zn10  1  0.59955354  0.69173524  0.33694464  1
  Zn  Zn11  1  0.35438092  0.57749125  0.56911280  1
  Zn  Zn12  1  0.16811795  0.30784475  0.30267904  1
  Zn  Zn13  1  0.38903087  0.81299381  0.08531431  1
  Zn  Zn14  1  0.00077467  0.63709717  0.96750796  1
  Zn  Zn15  1  0.28548804  0.76865556  0.37719753  1
  Zn  Zn16  1  0.38155052  0.11913403  0.76962995  1
  Zn  Zn17  1  0.18680218  0.41159441  0.85519288  1
  Zn  Zn18  1  0.40363755  0.54672745  0.09122588  1
  Zn  Zn19  1  0.99141259  0.09407778  0.19710785  1
  Zn  Zn20  1  0.03600618  0.17781615  0.80929682  1
  Zn  Zn21  1  0.72448688  0.97020777  0.12030982  1
  Zn  Zn22  1  0.95492470  0.33486820  0.02910293  1
  Zn  Zn23  1  0.02695275  0.74684472  0.63779217  1
  Zn  Zn24  1  0.25157777  0.80666818  0.84421314  1
  Zn  Zn25  1  0.70441145  0.74311669  0.97536649  1
  Zn  Zn26  1  0.07634099  0.85441008  0.08236856  1
  Zn  Zn27  1  0.82591105  0.49280504  0.80238195  1
  Zn  Zn28  1  0.52457808  0.88806214  0.84522508  1
  Zn  Zn29  1  0.92478045  0.21240872  0.51874725  1
  Zn  Zn30  1  0.86993554  0.45455510  0.33128728  1
  Zn  Zn31  1  0.76123416  0.84585415  0.63489059  1
  Zn  Zn32  1  0.27075775  0.30481200  0.59716034  1
  Zn  Zn33  1  0.54819012  0.27289114  0.93326648  1
  Zn  Zn34  1  0.73024476  0.23742757  0.27994326  1
  Zn  Zn35  1  0.77958662  0.96616694  0.40614494  1
  Zn  Zn36  1  0.88378395  0.76069802  0.29692224  1
  Zn  Zn37  1  0.76607229  0.55790184  0.55120196  1
  Zn  Zn38  1  0.52450852  0.10640767  0.47274661  1
  Zn  Zn39  1  0.22591183  0.11207187  0.04251611  1
  O  O40  1  0.80464973  0.59671488  0.97250651  1
  O  O41  1  0.37713754  0.92466334  0.74353210  1
  O  O42  1  0.24243432  0.91815185  0.01673747  1
  O  O43  1  0.87370521  0.32617609  0.85216443  1
  O  O44  1  0.77453779  0.34270342  0.48431781  1
  O  O45  1  0.34200264  0.93773211  0.40341456  1
  O  O46  1  0.04175337  0.16962761  0.01262760  1
  O  O47  1  0.36463201  0.14331541  0.57231735  1
  O  O48  1  0.68171053  0.14109540  0.06577905  1
  O  O49  1  0.66973368  0.78079078  0.78529298  1
  O  O50  1  0.92835884  0.57700907  0.65085485  1
  O  O51  1  0.43808710  0.41072774  0.51532051  1
  O  O52  1  0.62817054  0.97154774  0.54777963  1
  O  O53  1  0.22023967  0.47356531  0.67272236  1
  O  O54  1  0.30372607  0.41548699  0.20831032  1
  O  O55  1  0.12206323  0.23313699  0.48985321  1
  O  O56  1  0.69992098  0.84863051  0.28090713  1
  O  O57  1  0.17953863  0.68543602  0.51954196  1
  O  O58  1  0.47037530  0.70703195  0.49358056  1
  O  O59  1  0.65061253  0.50339152  0.70210089  1
  O  O60  1  0.17925458  0.13296401  0.24194884  1
  O  O61  1  0.53515591  0.21754032  0.31308216  1
  O  O62  1  0.39271897  0.67570550  0.91658926  1
  O  O63  1  0.91653949  0.93657737  0.14234129  1
  O  O64  1  0.30286626  0.69050933  0.20320793  1
  O  O65  1  0.01698916  0.69457182  0.16185305  1
  O  O66  1  0.22036303  0.23883539  0.79730026  1
  O  O67  1  0.09189739  0.47624738  0.00746127  1
  O  O68  1  0.53855217  0.44565398  0.97095679  1
  O  O69  1  0.78113033  0.61352477  0.37099875  1
  O  O70  1  0.57462800  0.86718774  0.03323576  1
  O  O71  1  0.81764732  0.37120712  0.17071035  1
  O  O72  1  0.06913086  0.75997159  0.83090124  1
  O  O73  1  0.57963906  0.21558361  0.74741671  1
  O  O74  1  0.55450883  0.55039231  0.22356104  1
  O  O75  1  0.86311419  0.12297176  0.35251659  1
  O  O76  1  0.90471077  0.83814731  0.50535333  1
  O  O77  1  0.91099497  0.11141352  0.69055850  1
  O  O78  1  0.05973999  0.46221862  0.35303091  1
  O  O79  1  0.41000266  0.14076300  0.98204811  1
