# generated using pymatgen
data_Cr2O3
_symmetry_space_group_name_H-M   'P 1'
_cell_length_a   10.11740215
_cell_length_b   9.59381470
_cell_length_c   9.71082219
_cell_angle_alpha   89.53034415
_cell_angle_beta   94.50274445
_cell_angle_gamma   91.25311611
_symmetry_Int_Tables_number   1
_chemical_formula_structural   Cr2O3
_chemical_formula_sum   'Cr32 O48'
_cell_volume   939.42214189
_cell_formula_units_Z   16
loop_
 _symmetry_equiv_pos_site_id
 _symmetry_equiv_pos_as_xyz
  1  'x, y, z'
loop_
 _atom_site_type_symbol
 _atom_site_label
 _atom_site_symmetry_multiplicity
 _atom_site_fract_x
 _atom_site_fract_y
 _atom_site_fract_z
 _atom_site_occupancy
  Cr  Cr0  1  0.62576770  0.52569517  0.44079972  1
  Cr  Cr1  1  0.58978380  0.16437443  0.50179380  1
  Cr  Cr2  1  0.72715371  0.13550893  0.86737427  1
  Cr  Cr3  1  0.33094928  0.94881092  0.48314736  1
  Cr  Cr4  1  0.56990302  0.37202545  0.16295594  1
  Cr  Cr5  1  0.71633204  0.08977174  0.15592320  1
  Cr  Cr6  1  0.41705931  0.90040533  0.84721148  1
  Cr  Cr7  1  0.92574757  0.71301245  0.48990798  1
  Cr  Cr8  1  0.38319680  0.66425948  0.66707336  1
  Cr  Cr9  1  0.63935337  0.70613863  0.93483250  1
  Cr  Cr10  1  0.86601675  0.61700357  0.75603056  1
  Cr  Cr11  1  0.06736950  0.35467076  0.29478370  1
  Cr  Cr12  1  0.69317195  0.82741183  0.29243512  1
  Cr  Cr13  1  0.83047098  0.52529775  0.12861041  1
  Cr  Cr14  1  0.89707122  0.81845627  0.00231805  1
  Cr  Cr15  1  0.82678559  0.28639229  0.65474929  1
  Cr  Cr16  1  0.65568146  0.90260781  0.66108838  1
  Cr  Cr17  1  0.07469817  0.35540168  0.83374602  1
  Cr  Cr18  1  0.89696651  0.00899650  0.48565390  1
  Cr  Cr19  1  0.33989220  0.57176666  0.96622279  1
  Cr  Cr20  1  0.40754124  0.85212241  0.14658433  1
  Cr  Cr21  1  0.12442039  0.86145964  0.73342354  1
  Cr  Cr22  1  0.01273286  0.08284062  0.95523455  1
  Cr  Cr23  1  0.80132750  0.30070304  0.35485909  1
  Cr  Cr24  1  0.54593047  0.36369023  0.88680820  1
  Cr  Cr25  1  0.33952643  0.39708379  0.61450540  1
  Cr  Cr26  1  0.10051545  0.62574678  0.09099025  1
  Cr  Cr27  1  0.15061817  0.14430261  0.61231226  1
  Cr  Cr28  1  0.27335119  0.17365374  0.06344932  1
  Cr  Cr29  1  0.36985028  0.60372344  0.35943914  1
  Cr  Cr30  1  0.11366075  0.94560642  0.27107047  1
  Cr  Cr31  1  0.32740041  0.28205937  0.35256267  1
  O  O32  1  0.17872547  0.34081798  0.67600738  1
  O  O33  1  0.27964439  0.99063153  0.67843835  1
  O  O34  1  0.92583968  0.61098237  0.97102482  1
  O  O35  1  0.82877691  0.01556619  0.00973920  1
  O  O36  1  0.89644809  0.30316883  0.18680365  1
  O  O37  1  0.82307028  0.99046465  0.29175841  1
  O  O38  1  0.04413082  0.89506366  0.90128015  1
  O  O39  1  0.75660402  0.72809884  0.11888964  1
  O  O40  1  0.75393099  0.08553691  0.59777498  1
  O  O41  1  0.01939838  0.01564654  0.65260373  1
  O  O42  1  0.03395937  0.79951830  0.15672137  1
  O  O43  1  0.19938451  0.12949656  0.42151972  1
  O  O44  1  0.62851365  0.20508912  0.29378439  1
  O  O45  1  0.11748209  0.07612747  0.12542116  1
  O  O46  1  0.31150023  0.74920792  0.49787890  1
  O  O47  1  0.16260752  0.50211810  0.94681406  1
  O  O48  1  0.47199690  0.74587011  0.99238306  1
  O  O49  1  0.03692862  0.87158504  0.43284614  1
  O  O50  1  0.54921007  0.69557714  0.33872526  1
  O  O51  1  0.66451975  0.29591264  0.75853196  1
  O  O52  1  0.94858973  0.24013122  0.48376000  1
  O  O53  1  0.64145920  0.22642375  0.01643003  1
  O  O54  1  0.23531710  0.43733575  0.42157265  1
  O  O55  1  0.91205403  0.20942122  0.83258246  1
  O  O56  1  0.78244364  0.83963119  0.49660082  1
  O  O57  1  0.46539760  0.43186200  0.30665824  1
  O  O58  1  0.00830951  0.70901941  0.67097256  1
  O  O59  1  0.27755320  0.74387060  0.81300570  1
  O  O60  1  0.16715696  0.18764572  0.89552826  1
  O  O61  1  0.46299319  0.54046601  0.54214707  1
  O  O62  1  0.52366060  0.97187462  0.51102966  1
  O  O63  1  0.57979534  0.01267560  0.80673814  1
  O  O64  1  0.77542524  0.78942437  0.82321921  1
  O  O65  1  0.35858105  0.99635627  0.00732147  1
  O  O66  1  0.58531850  0.94134265  0.17321073  1
  O  O67  1  0.29298203  0.66210897  0.15596435  1
  O  O68  1  0.41153862  0.49295397  0.79333531  1
  O  O69  1  0.41341424  0.35669156  0.02712050  1
  O  O70  1  0.30958640  0.94229129  0.28278498  1
  O  O71  1  0.21520485  0.32056461  0.18665832  1
  O  O72  1  0.72235595  0.46934408  0.27742497  1
  O  O73  1  0.00584534  0.54057997  0.24219775  1
  O  O74  1  0.63655189  0.50749085  0.00621549  1
  O  O75  1  0.69435011  0.34069622  0.50791811  1
  O  O76  1  0.53502955  0.76199744  0.74155184  1
  O  O77  1  0.78767823  0.58920997  0.55765321  1
  O  O78  1  0.93271079  0.44243227  0.72956218  1
  O  O79  1  0.42258629  0.24597379  0.52980459  1
