# generated using pymatgen
data_Mg4GeN4
_symmetry_space_group_name_H-M   'P 1'
_cell_length_a   5.39020096
_cell_length_b   10.72328248
_cell_length_c   8.28262113
_cell_angle_alpha   90.00000000
_cell_angle_beta   90.00000000
_cell_angle_gamma   90.00000000
_symmetry_Int_Tables_number   1
_chemical_formula_structural   Mg4GeN4
_chemical_formula_sum   'Mg16 Ge4 N16'
_cell_volume   478.74086446
_cell_formula_units_Z   4
loop_
 _symmetry_equiv_pos_site_id
 _symmetry_equiv_pos_as_xyz
  1  'x, y, z'
loop_
 _atom_site_type_symbol
 _atom_site_label
 _atom_site_symmetry_multiplicity
 _atom_site_fract_x
 _atom_site_fract_y
 _atom_site_fract_z
 _atom_site_occupancy
  Mg  Mg0  1  0.18082042  0.35933281  0.61768357  1
  Mg  Mg1  1  0.31917958  0.64066719  0.61768357  1
  Mg  Mg2  1  0.18082042  0.14066719  0.88231643  1
  Mg  Mg3  1  0.31917958  0.85933281  0.88231643  1
  Mg  Mg4  1  0.81917958  0.64066719  0.38231643  1
  Mg  Mg5  1  0.68082042  0.35933281  0.38231643  1
  Mg  Mg6  1  0.81917958  0.85933281  0.11768357  1
  Mg  Mg7  1  0.68082042  0.14066719  0.11768357  1
  Mg  Mg8  1  0.75000000  0.50000000  0.04364827  1
  Mg  Mg9  1  0.75000000  0.00000000  0.45635173  1
  Mg  Mg10  1  0.25000000  0.50000000  0.95635173  1
  Mg  Mg11  1  0.25000000  0.00000000  0.54364827  1
  Mg  Mg12  1  0.72552446  0.25000000  0.75000000  1
  Mg  Mg13  1  0.77447554  0.75000000  0.75000000  1
  Mg  Mg14  1  0.27447554  0.75000000  0.25000000  1
  Mg  Mg15  1  0.22552446  0.25000000  0.25000000  1
  Ge  Ge16  1  0.75000000  0.50000000  0.71120450  1
  Ge  Ge17  1  0.75000000  0.00000000  0.78879550  1
  Ge  Ge18  1  0.25000000  0.50000000  0.28879550  1
  Ge  Ge19  1  0.25000000  -0.00000000  0.21120450  1
  N  N20  1  0.55211277  0.37971862  0.61147405  1
  N  N21  1  0.94788723  0.62028138  0.61147405  1
  N  N22  1  0.55211277  0.12028138  0.88852595  1
  N  N23  1  0.94788723  0.87971862  0.88852595  1
  N  N24  1  0.44788723  0.62028138  0.38852595  1
  N  N25  1  0.05211277  0.37971862  0.38852595  1
  N  N26  1  0.44788723  0.87971862  0.11147405  1
  N  N27  1  0.05211277  0.12028138  0.11147405  1
  N  N28  1  0.96872250  0.10293572  0.65871635  1
  N  N29  1  0.53127750  0.89706428  0.65871635  1
  N  N30  1  0.96872250  0.39706428  0.84128365  1
  N  N31  1  0.53127750  0.60293572  0.84128365  1
  N  N32  1  0.03127750  0.89706428  0.34128365  1
  N  N33  1  0.46872250  0.10293572  0.34128365  1
  N  N34  1  0.03127750  0.60293572  0.15871635  1
  N  N35  1  0.46872250  0.39706428  0.15871635  1
