# generated using pymatgen
data_CuSi7N10
_symmetry_space_group_name_H-M   'P 1'
_cell_length_a   6.69895897
_cell_length_b   6.91021079
_cell_length_c   9.70076701
_cell_angle_alpha   90.00000000
_cell_angle_beta   103.88470509
_cell_angle_gamma   90.00000000
_symmetry_Int_Tables_number   1
_chemical_formula_structural   CuSi7N10
_chemical_formula_sum   'Cu2 Si14 N20'
_cell_volume   435.93904123
_cell_formula_units_Z   2
loop_
 _symmetry_equiv_pos_site_id
 _symmetry_equiv_pos_as_xyz
  1  'x, y, z'
loop_
 _atom_site_type_symbol
 _atom_site_label
 _atom_site_symmetry_multiplicity
 _atom_site_fract_x
 _atom_site_fract_y
 _atom_site_fract_z
 _atom_site_occupancy
  Cu  Cu0  1  0.97406154  0.90514406  0.68494059  1
  Cu  Cu1  1  0.97406154  0.09485594  0.18494059  1
  Si  Si2  1  0.54407854  0.98146892  0.82368832  1
  Si  Si3  1  0.54407854  0.01853108  0.32368832  1
  Si  Si4  1  0.35138103  0.01907272  0.02150649  1
  Si  Si5  1  0.35138103  0.98092728  0.52150649  1
  Si  Si6  1  0.11340995  0.40016230  0.07392203  1
  Si  Si7  1  0.11340995  0.59983770  0.57392203  1
  Si  Si8  1  0.65738545  0.36235548  0.98966205  1
  Si  Si9  1  0.65738545  0.63764452  0.48966205  1
  Si  Si10  1  0.84577447  0.61797591  0.80937050  1
  Si  Si11  1  0.84577447  0.38202409  0.30937050  1
  Si  Si12  1  0.29935466  0.62099278  0.88221020  1
  Si  Si13  1  0.29935466  0.37900722  0.38221020  1
  Si  Si14  1  0.48412710  0.36741918  0.68630305  1
  Si  Si15  1  0.48412710  0.63258082  0.18630305  1
  N  N16  1  0.75389966  0.84865584  0.80826948  1
  N  N17  1  0.75389966  0.15134416  0.30826948  1
  N  N18  1  0.55422105  0.13731662  0.96899354  1
  N  N19  1  0.55422105  0.86268338  0.46899354  1
  N  N20  1  0.32461680  0.86789577  0.86911299  1
  N  N21  1  0.32461680  0.13210423  0.36911299  1
  N  N22  1  0.15280560  0.15851722  0.04699523  1
  N  N23  1  0.15280560  0.84148278  0.54699523  1
  N  N24  1  0.28747053  0.50565205  0.72308274  1
  N  N25  1  0.28747053  0.49434795  0.22308274  1
  N  N26  1  0.44997509  0.12091221  0.67184882  1
  N  N27  1  0.44997509  0.87908779  0.17184882  1
  N  N28  1  0.88030983  0.38448204  0.12943801  1
  N  N29  1  0.88030983  0.61551796  0.62943801  1
  N  N30  1  0.07550988  0.56808587  0.93472455  1
  N  N31  1  0.07550988  0.43191413  0.43472455  1
  N  N32  1  0.69796217  0.41826719  0.82331640  1
  N  N33  1  0.69796217  0.58173281  0.32331640  1
  N  N34  1  0.49595567  0.54010913  0.02191700  1
  N  N35  1  0.49595567  0.45989087  0.52191700  1
