# generated using pymatgen
data_GeCN2
_symmetry_space_group_name_H-M   'P 1'
_cell_length_a   6.34561300
_cell_length_b   8.73552412
_cell_length_c   5.14531274
_cell_angle_alpha   90.00000000
_cell_angle_beta   90.00000000
_cell_angle_gamma   90.00000000
_symmetry_Int_Tables_number   1
_chemical_formula_structural   GeCN2
_chemical_formula_sum   'Ge4 C4 N8'
_cell_volume   285.21629001
_cell_formula_units_Z   4
loop_
 _symmetry_equiv_pos_site_id
 _symmetry_equiv_pos_as_xyz
  1  'x, y, z'
loop_
 _atom_site_type_symbol
 _atom_site_label
 _atom_site_symmetry_multiplicity
 _atom_site_fract_x
 _atom_site_fract_y
 _atom_site_fract_z
 _atom_site_occupancy
  Ge  Ge0  1  0.62317073  0.36798817  0.06187677  1
  Ge  Ge1  1  0.37682927  0.63201183  0.56187677  1
  Ge  Ge2  1  0.87682927  0.86798817  0.56187677  1
  Ge  Ge3  1  0.12317073  0.13201183  0.06187677  1
  C  C4  1  0.69279846  0.79543296  0.06266977  1
  C  C5  1  0.30720154  0.20456704  0.56266977  1
  C  C6  1  0.80720154  0.29543296  0.56266977  1
  C  C7  1  0.19279846  0.70456704  0.06266977  1
  N  N8  1  0.81520593  0.29121894  0.32396607  1
  N  N9  1  0.18479407  0.70878106  0.82396607  1
  N  N10  1  0.68479407  0.79121894  0.82396607  1
  N  N11  1  0.31520593  0.20878106  0.32396607  1
  N  N12  1  0.68212015  0.79266577  0.30148739  1
  N  N13  1  0.31787985  0.20733423  0.80148739  1
  N  N14  1  0.81787985  0.29266577  0.80148739  1
  N  N15  1  0.18212015  0.70733423  0.30148739  1
