# generated using pymatgen
data_Fe2O3
_symmetry_space_group_name_H-M   'P 1'
_cell_length_a   10.32960213
_cell_length_b   10.33518513
_cell_length_c   10.03799686
_cell_angle_alpha   85.59534254
_cell_angle_beta   83.42412812
_cell_angle_gamma   84.45694590
_symmetry_Int_Tables_number   1
_chemical_formula_structural   Fe2O3
_chemical_formula_sum   'Fe32 O48'
_cell_volume   1057.26718099
_cell_formula_units_Z   16
loop_
 _symmetry_equiv_pos_site_id
 _symmetry_equiv_pos_as_xyz
  1  'x, y, z'
loop_
 _atom_site_type_symbol
 _atom_site_label
 _atom_site_symmetry_multiplicity
 _atom_site_fract_x
 _atom_site_fract_y
 _atom_site_fract_z
 _atom_site_occupancy
  Fe  Fe0  1  0.33879730  0.59738930  0.95016745  1
  Fe  Fe1  1  0.51951958  0.36661570  0.86469348  1
  Fe  Fe2  1  0.53678988  0.82623596  0.84558246  1
  Fe  Fe3  1  0.88672652  0.11684784  0.44762009  1
  Fe  Fe4  1  0.49777471  0.40763888  0.21389451  1
  Fe  Fe5  1  0.43376515  0.55083635  0.50281879  1
  Fe  Fe6  1  0.53387758  0.08519210  0.80509103  1
  Fe  Fe7  1  0.69272032  0.57024123  0.98497368  1
  Fe  Fe8  1  0.10438477  0.59488620  0.46762318  1
  Fe  Fe9  1  0.16382047  0.65891433  0.73100030  1
  Fe  Fe10  1  0.89630914  0.73767979  0.30506898  1
  Fe  Fe11  1  0.29709828  0.36543931  0.74492616  1
  Fe  Fe12  1  0.77281489  0.33893992  0.72037881  1
  Fe  Fe13  1  0.24572029  0.29110433  0.42192736  1
  Fe  Fe14  1  0.07509302  0.14797679  0.16022238  1
  Fe  Fe15  1  0.03904045  0.92006437  0.68355900  1
  Fe  Fe16  1  0.05670005  0.23045427  0.71008116  1
  Fe  Fe17  1  0.80757815  0.62019335  0.68828543  1
  Fe  Fe18  1  0.36888968  0.85846963  0.64784652  1
  Fe  Fe19  1  0.23975557  0.09479654  0.89504997  1
  Fe  Fe20  1  0.57813826  0.78292934  0.35200130  1
  Fe  Fe21  1  0.85193307  0.42973563  0.17940403  1
  Fe  Fe22  1  0.42309018  0.72800503  0.16068205  1
  Fe  Fe23  1  0.62661032  0.14538326  0.29627827  1
  Fe  Fe24  1  0.69572337  0.93157648  0.09345678  1
  Fe  Fe25  1  0.97912636  0.88849870  0.98447078  1
  Fe  Fe26  1  0.83326421  0.14458506  0.95480510  1
  Fe  Fe27  1  0.90958052  0.40195625  0.44418836  1
  Fe  Fe28  1  0.17159518  0.91156919  0.37385501  1
  Fe  Fe29  1  0.38258813  0.06094798  0.21708268  1
  Fe  Fe30  1  0.03021144  0.41590277  0.93950790  1
  Fe  Fe31  1  0.72066686  0.90437848  0.57676275  1
  O  O32  1  0.78619444  0.47220187  0.57810817  1
  O  O33  1  0.87672166  0.83693130  0.14316973  1
  O  O34  1  0.68278186  0.48415345  0.82596555  1
  O  O35  1  0.92262391  0.23981286  0.58289429  1
  O  O36  1  0.85157763  0.28349176  0.32970287  1
  O  O37  1  0.71352707  0.06825182  0.44445247  1
  O  O38  1  0.35554191  0.95190249  0.82529596  1
  O  O39  1  0.39507909  0.21495895  0.83665424  1
  O  O40  1  0.01907443  0.32964270  0.11541459  1
  O  O41  1  0.00399229  0.62520838  0.63935263  1
  O  O42  1  0.48568680  0.21302356  0.19647427  1
  O  O43  1  0.56079676  0.96362935  0.96172345  1
  O  O44  1  0.10579105  0.05621316  0.76009718  1
  O  O45  1  0.09629919  0.42202940  0.40951650  1
  O  O46  1  0.66965787  0.20535482  0.81330573  1
  O  O47  1  0.45560320  0.44004491  0.67249634  1
  O  O48  1  0.21811140  0.28213481  0.61160739  1
  O  O49  1  0.01608291  0.06504667  0.01638836  1
  O  O50  1  0.90662077  0.29941865  0.84687872  1
  O  O51  1  0.56145788  0.97838033  0.27640393  1
  O  O52  1  0.33531341  0.87655380  0.26198472  1
  O  O53  1  0.88356609  0.53940061  0.99984622  1
  O  O54  1  0.89581644  0.96158303  0.58371385  1
  O  O55  1  0.06767694  0.75671900  0.36298322  1
  O  O56  1  0.67478627  0.44151898  0.12965008  1
  O  O57  1  0.70515034  0.77830924  0.74311217  1
  O  O58  1  0.38228515  0.39947228  0.38644455  1
  O  O59  1  0.60383693  0.30940512  0.36352456  1
  O  O60  1  0.05673869  0.79448649  0.83343443  1
  O  O61  1  0.26819591  0.68377587  0.09957347  1
  O  O62  1  0.74238393  0.11461745  0.12683475  1
  O  O63  1  0.15012199  0.27521840  0.86241545  1
  O  O64  1  0.51700210  0.67822927  0.97112850  1
  O  O65  1  0.19981403  0.87555542  0.56555887  1
  O  O66  1  0.82355992  0.96803683  0.91183361  1
  O  O67  1  0.47517276  0.74388105  0.52200385  1
  O  O68  1  0.26095192  0.11632910  0.36654907  1
  O  O69  1  0.19040980  0.51271284  0.86293550  1
  O  O70  1  0.02903137  0.04184744  0.32268477  1
  O  O71  1  0.74513186  0.78715056  0.42933825  1
  O  O72  1  0.25351154  0.10258124  0.08675169  1
  O  O73  1  0.88392947  0.55332789  0.30520320  1
  O  O74  1  0.25188380  0.58714790  0.56207840  1
  O  O75  1  0.54490590  0.96300182  0.65987907  1
  O  O76  1  0.42810535  0.44009057  0.03271063  1
  O  O77  1  0.33791820  0.70979329  0.77534572  1
  O  O78  1  0.62669228  0.76483610  0.16022328  1
  O  O79  1  0.48444776  0.60807580  0.30901296  1
