# generated using pymatgen
data_Al2O3
_symmetry_space_group_name_H-M   'P 1'
_cell_length_a   10.26461385
_cell_length_b   10.52874296
_cell_length_c   10.38550871
_cell_angle_alpha   90.20285378
_cell_angle_beta   83.20771444
_cell_angle_gamma   91.14245336
_symmetry_Int_Tables_number   1
_chemical_formula_structural   Al2O3
_chemical_formula_sum   'Al40 O60'
_cell_volume   1114.29811771
_cell_formula_units_Z   20
loop_
 _symmetry_equiv_pos_site_id
 _symmetry_equiv_pos_as_xyz
  1  'x, y, z'
loop_
 _atom_site_type_symbol
 _atom_site_label
 _atom_site_symmetry_multiplicity
 _atom_site_fract_x
 _atom_site_fract_y
 _atom_site_fract_z
 _atom_site_occupancy
  Al  Al0  1  0.07297440  0.41977402  0.45843872  1
  Al  Al1  1  0.82940924  0.09749914  0.66544626  1
  Al  Al2  1  0.15731119  0.80521231  0.62845933  1
  Al  Al3  1  0.16028676  0.54536693  0.82391357  1
  Al  Al4  1  0.65650389  0.84538982  0.53693866  1
  Al  Al5  1  0.06313104  0.18772606  0.72681855  1
  Al  Al6  1  0.38236190  0.19928669  0.52525554  1
  Al  Al7  1  0.37648333  0.00379958  0.76623689  1
  Al  Al8  1  0.05068197  0.32197086  0.17824657  1
  Al  Al9  1  0.88408093  0.56139459  0.84890167  1
  Al  Al10  1  0.56681588  0.69777038  0.02211412  1
  Al  Al11  1  0.52145523  0.16547928  0.94719081  1
  Al  Al12  1  0.69261008  0.12726465  0.42986382  1
  Al  Al13  1  0.62123355  0.87606105  0.80574530  1
  Al  Al14  1  0.24455816  0.75719073  0.03356333  1
  Al  Al15  1  0.86100611  0.21245885  0.95741589  1
  Al  Al16  1  0.35169620  0.27432940  0.76683359  1
  Al  Al17  1  0.07652535  0.91076513  0.17231339  1
  Al  Al18  1  0.41115181  0.94886933  0.07534978  1
  Al  Al19  1  0.38046761  0.75878141  0.64543977  1
  Al  Al20  1  0.57722979  0.39646714  0.49627253  1
  Al  Al21  1  0.11432702  0.60109976  0.24914832  1
  Al  Al22  1  0.64083368  0.59657798  0.32831460  1
  Al  Al23  1  0.83532755  0.05110735  0.20228539  1
  Al  Al24  1  0.29936667  0.94573072  0.37446153  1
  Al  Al25  1  0.00557678  0.99722176  0.45787894  1
  Al  Al26  1  0.84651395  0.91426447  0.96424801  1
  Al  Al27  1  0.61933192  0.40333100  0.95212501  1
  Al  Al28  1  0.79157356  0.35596608  0.66781388  1
  Al  Al29  1  0.60249131  0.57590707  0.74505551  1
  Al  Al30  1  0.35578558  0.46898195  0.33005510  1
  Al  Al31  1  0.86446432  0.81212807  0.67856551  1
  Al  Al32  1  0.58395747  0.86214795  0.30113442  1
  Al  Al33  1  0.90883860  0.60797868  0.53842845  1
  Al  Al34  1  0.15840851  0.11469233  0.00492992  1
  Al  Al35  1  0.62247087  0.31344372  0.25040525  1
  Al  Al36  1  0.33110756  0.20408752  0.22047031  1
  Al  Al37  1  0.84957416  0.48518678  0.13230752  1
  Al  Al38  1  0.80264074  0.74074869  0.14316111  1
  Al  Al39  1  0.33126882  0.49638394  0.61746150  1
  O  O40  1  0.20304022  0.23838011  0.11880937  1
  O  O41  1  0.45658671  0.61154275  0.66940097  1
  O  O42  1  0.93596232  0.65897182  0.70640851  1
  O  O43  1  0.68792330  0.72477553  0.75072400  1
  O  O44  1  0.01427822  0.46138797  0.84579535  1
  O  O45  1  0.92886324  0.43487262  0.57465382  1
  O  O46  1  0.06388760  0.30439587  0.34318802  1
  O  O47  1  0.22047476  0.22077728  0.65050065  1
  O  O48  1  0.74030923  0.89496793  0.21277519  1
  O  O49  1  0.60284400  0.69419071  0.18335258  1
  O  O50  1  0.48072203  0.31100668  0.87638766  1
  O  O51  1  0.43923704  0.12099348  0.65798701  1
  O  O52  1  0.99747094  0.10216335  0.59504832  1
  O  O53  1  0.27489086  0.43105705  0.77830428  1
  O  O54  1  0.73619623  0.95120470  0.66129624  1
  O  O55  1  0.43491523  0.33537582  0.24349597  1
  O  O56  1  0.26100011  0.87603600  0.74365366  1
  O  O57  1  0.43799848  0.11527748  0.10295551  1
  O  O58  1  0.75069080  0.45331094  0.81992402  1
  O  O59  1  0.24387197  0.43871027  0.47967005  1
  O  O60  1  0.32035364  0.12046177  0.38180775  1
  O  O61  1  0.01940852  0.86154423  0.56707251  1
  O  O62  1  0.13291530  0.95282019  0.33476714  1
  O  O63  1  0.87249944  0.22882155  0.77017583  1
  O  O64  1  0.50870879  0.99849553  0.88843667  1
  O  O65  1  0.59078397  0.74080177  0.42241011  1
  O  O66  1  0.80825771  0.74459246  0.52525422  1
  O  O67  1  0.04308278  0.58751609  0.41515791  1
  O  O68  1  0.30138154  0.83568841  0.50433967  1
  O  O69  1  0.41792673  0.78482907  0.01787501  1
  O  O70  1  0.60731288  0.97496505  0.43709282  1
  O  O71  1  0.27665614  0.55402399  0.22719771  1
  O  O72  1  0.67082619  0.42672378  0.11561156  1
  O  O73  1  0.90510126  0.91863100  0.80300248  1
  O  O74  1  0.81487104  0.61947390  0.25786143  1
  O  O75  1  0.69637419  0.42773963  0.35499566  1
  O  O76  1  0.94444090  0.83819499  0.07455419  1
  O  O77  1  0.48479903  0.52169643  0.41487999  1
  O  O78  1  0.04360302  0.16232800  0.89780500  1
  O  O79  1  0.67874412  0.83506251  0.96671325  1
  O  O80  1  0.18276622  0.66540411  0.92559620  1
  O  O81  1  0.90707041  0.31408715  0.08716442  1
  O  O82  1  0.54971129  0.23622800  0.42943904  1
  O  O83  1  0.72142799  0.17341867  0.25826054  1
  O  O84  1  0.74387849  0.20854631  0.57779576  1
  O  O85  1  0.14102506  0.75422890  0.18407348  1
  O  O86  1  0.42745195  0.90663110  0.24673986  1
  O  O87  1  0.86403898  0.03744517  0.38663545  1
  O  O88  1  0.02459595  0.49128690  0.16458230  1
  O  O89  1  0.01723172  0.06619554  0.14769277  1
  O  O90  1  0.21768935  0.64501402  0.65776617  1
  O  O91  1  0.22998103  0.94529382  0.05268967  1
  O  O92  1  0.67780909  0.23760901  0.96031189  1
  O  O93  1  0.50855895  0.86523143  0.67838615  1
  O  O94  1  0.29909026  0.12883340  0.87728888  1
  O  O95  1  0.83271808  0.61493555  0.00947492  1
  O  O96  1  0.55004019  0.56214188  0.92355671  1
  O  O97  1  0.66811897  0.46624455  0.61576835  1
  O  O98  1  0.43085166  0.35412423  0.60447678  1
  O  O99  1  0.81293936  0.06258238  0.02799823  1
