# generated using pymatgen
data_Ga4Te3N2
_symmetry_space_group_name_H-M   'P 1'
_cell_length_a   6.37351306
_cell_length_b   11.34036410
_cell_length_c   11.99517506
_cell_angle_alpha   90.00001488
_cell_angle_beta   90.00000000
_cell_angle_gamma   90.00000000
_symmetry_Int_Tables_number   1
_chemical_formula_structural   Ga4Te3N2
_chemical_formula_sum   'Ga16 Te12 N8'
_cell_volume   866.98676754
_cell_formula_units_Z   4
loop_
 _symmetry_equiv_pos_site_id
 _symmetry_equiv_pos_as_xyz
  1  'x, y, z'
loop_
 _atom_site_type_symbol
 _atom_site_label
 _atom_site_symmetry_multiplicity
 _atom_site_fract_x
 _atom_site_fract_y
 _atom_site_fract_z
 _atom_site_occupancy
  Ga  Ga0  1  0.56751380  0.25000000  0.88257817  1
  Ga  Ga1  1  0.06751480  0.25000000  0.61742183  1
  Ga  Ga2  1  0.43248620  0.75000000  0.11742183  1
  Ga  Ga3  1  0.93248520  0.75000000  0.38257817  1
  Ga  Ga4  1  0.94370626  0.25000000  0.38366673  1
  Ga  Ga5  1  0.44370626  0.25000000  0.11633327  1
  Ga  Ga6  1  0.05629374  0.75000000  0.61633327  1
  Ga  Ga7  1  0.55629374  0.75000000  0.88366673  1
  Ga  Ga8  1  0.71402806  0.50001365  0.00941817  1
  Ga  Ga9  1  0.21402806  0.99998635  0.49058183  1
  Ga  Ga10  1  0.28597094  0.00001365  0.99058183  1
  Ga  Ga11  1  0.78597094  0.49998635  0.50941817  1
  Ga  Ga12  1  0.28597194  0.49998635  0.99058183  1
  Ga  Ga13  1  0.78597194  0.00001365  0.50941817  1
  Ga  Ga14  1  0.71402906  0.99998635  0.00941817  1
  Ga  Ga15  1  0.21402906  0.50001365  0.49058183  1
  Te  Te16  1  0.01650200  0.25000000  0.15786278  1
  Te  Te17  1  0.51650200  0.25000000  0.34213722  1
  Te  Te18  1  0.98349800  0.75000000  0.84213722  1
  Te  Te19  1  0.48349800  0.75000000  0.65786278  1
  Te  Te20  1  0.51362634  0.52196543  0.33584270  1
  Te  Te21  1  0.01362634  0.97803457  0.16415730  1
  Te  Te22  1  0.48637366  0.02196543  0.66415730  1
  Te  Te23  1  0.98637366  0.47803457  0.83584270  1
  Te  Te24  1  0.48637366  0.47803457  0.66415730  1
  Te  Te25  1  0.98637366  0.02196543  0.83584270  1
  Te  Te26  1  0.51362634  0.97803457  0.33584270  1
  Te  Te27  1  0.01362634  0.52196543  0.16415730  1
  N  N28  1  0.50192664  0.62302533  0.98533127  1
  N  N29  1  0.00192664  0.87697467  0.51466873  1
  N  N30  1  0.49807336  0.12302533  0.01466873  1
  N  N31  1  0.99807336  0.37697467  0.48533127  1
  N  N32  1  0.49807336  0.37697467  0.01466873  1
  N  N33  1  0.99807336  0.12302533  0.48533127  1
  N  N34  1  0.50192664  0.87697467  0.98533127  1
  N  N35  1  0.00192664  0.62302533  0.51466873  1
