# generated using pymatgen
data_GaSb2N3
_symmetry_space_group_name_H-M   'P 1'
_cell_length_a   5.80547092
_cell_length_b   10.12587537
_cell_length_c   14.54072290
_cell_angle_alpha   89.99999855
_cell_angle_beta   86.60135787
_cell_angle_gamma   150.70332158
_symmetry_Int_Tables_number   1
_chemical_formula_structural   GaSb2N3
_chemical_formula_sum   'Ga4 Sb8 N12'
_cell_volume   415.19180614
_cell_formula_units_Z   4
loop_
 _symmetry_equiv_pos_site_id
 _symmetry_equiv_pos_as_xyz
  1  'x, y, z'
loop_
 _atom_site_type_symbol
 _atom_site_label
 _atom_site_symmetry_multiplicity
 _atom_site_fract_x
 _atom_site_fract_y
 _atom_site_fract_z
 _atom_site_occupancy
  Ga  Ga0  1  0.61183800  0.35417346  0.67232935  1
  Ga  Ga1  1  0.38816200  0.74233546  0.82767065  1
  Ga  Ga2  1  0.38816200  0.64582654  0.32767065  1
  Ga  Ga3  1  0.61183800  0.25766454  0.17232935  1
  Sb  Sb4  1  0.43443653  0.08468469  0.92815461  1
  Sb  Sb5  1  0.56556347  0.65024916  0.57184539  1
  Sb  Sb6  1  0.56556347  0.91531531  0.07184539  1
  Sb  Sb7  1  0.43443653  0.34975084  0.42815461  1
  Sb  Sb8  1  0.64004341  0.00761459  0.64210461  1
  Sb  Sb9  1  0.35995659  0.36757118  0.85789539  1
  Sb  Sb10  1  0.35995659  0.99238541  0.35789539  1
  Sb  Sb11  1  0.64004341  0.63242882  0.14210461  1
  N  N12  1  -0.00000000  0.65573525  0.75000000  1
  N  N13  1  0.00000000  0.34426475  0.25000000  1
  N  N14  1  0.87678666  0.31925556  0.63658738  1
  N  N15  1  0.12321334  0.44246891  0.86341262  1
  N  N16  1  0.12321334  0.68074444  0.36341262  1
  N  N17  1  0.87678666  0.55753109  0.13658738  1
  N  N18  1  0.47390191  0.07627402  0.07039505  1
  N  N19  1  0.52609809  0.60237211  0.42960495  1
  N  N20  1  0.52609809  0.92372598  0.92960495  1
  N  N21  1  0.47390191  0.39762789  0.57039505  1
  N  N22  1  0.00000000  0.09305272  0.75000000  1
  N  N23  1  -0.00000000  0.90694728  0.25000000  1
