# generated using pymatgen
data_Al2O3
_symmetry_space_group_name_H-M   'P 1'
_cell_length_a   10.68917297
_cell_length_b   10.55567965
_cell_length_c   10.08483120
_cell_angle_alpha   96.49248382
_cell_angle_beta   92.99268158
_cell_angle_gamma   88.60639526
_symmetry_Int_Tables_number   1
_chemical_formula_structural   Al2O3
_chemical_formula_sum   'Al40 O60'
_cell_volume   1128.85248017
_cell_formula_units_Z   20
loop_
 _symmetry_equiv_pos_site_id
 _symmetry_equiv_pos_as_xyz
  1  'x, y, z'
loop_
 _atom_site_type_symbol
 _atom_site_label
 _atom_site_symmetry_multiplicity
 _atom_site_fract_x
 _atom_site_fract_y
 _atom_site_fract_z
 _atom_site_occupancy
  Al  Al0  1  0.34503631  0.59966286  0.39461126  1
  Al  Al1  1  0.51164894  0.96329321  0.97913805  1
  Al  Al2  1  0.03099688  0.79009151  0.52742542  1
  Al  Al3  1  0.09639934  0.62214829  0.87714654  1
  Al  Al4  1  0.31317429  0.15958374  0.77798391  1
  Al  Al5  1  0.87065006  0.18008433  0.73026913  1
  Al  Al6  1  0.08961800  0.22727112  0.54129804  1
  Al  Al7  1  0.75785636  0.02547880  0.12974551  1
  Al  Al8  1  0.34439419  0.89849129  0.23282184  1
  Al  Al9  1  0.12405490  0.52592952  0.55445040  1
  Al  Al10  1  0.87550982  0.47657639  0.02849459  1
  Al  Al11  1  0.66730585  0.23768928  0.96477850  1
  Al  Al12  1  0.74212621  0.16231989  0.41984965  1
  Al  Al13  1  0.51788365  0.80136291  0.68525919  1
  Al  Al14  1  0.99660218  0.89408138  0.83175156  1
  Al  Al15  1  0.91650775  0.27833666  0.20758958  1
  Al  Al16  1  0.96546405  0.41041126  0.79369550  1
  Al  Al17  1  0.04591143  0.04284381  0.19323144  1
  Al  Al18  1  0.47382450  0.00232192  0.54357884  1
  Al  Al19  1  0.29934109  0.09307049  0.05830772  1
  Al  Al20  1  0.45913493  0.28284652  0.39354507  1
  Al  Al21  1  0.73247671  0.81939593  0.87587011  1
  Al  Al22  1  0.61835394  0.64796329  0.33113628  1
  Al  Al23  1  0.82191451  0.87488783  0.32580592  1
  Al  Al24  1  0.26135706  0.79176783  0.63958871  1
  Al  Al25  1  0.21317127  0.02188555  0.46589565  1
  Al  Al26  1  0.77592348  0.93582477  0.61138922  1
  Al  Al27  1  0.44130142  0.34553287  0.12488029  1
  Al  Al28  1  0.69312367  0.40857384  0.25603564  1
  Al  Al29  1  0.65262718  0.53782577  0.79240331  1
  Al  Al30  1  0.24867149  0.60658906  0.12892057  1
  Al  Al31  1  0.56805721  0.52749645  0.53308823  1
  Al  Al32  1  0.41188077  0.68411432  0.91812383  1
  Al  Al33  1  0.20919561  0.30387937  0.29657327  1
  Al  Al34  1  0.04484462  0.13632537  0.91396250  1
  Al  Al35  1  0.05183301  0.55708772  0.28187633  1
  Al  Al36  1  0.40152496  0.41609678  0.89584800  1
  Al  Al37  1  0.95739998  0.75391562  0.09680962  1
  Al  Al38  1  0.67276501  0.69743002  0.08870698  1
  Al  Al39  1  0.58771476  0.24233008  0.66239055  1
  O  O40  1  0.36906737  0.98080774  0.39789116  1
  O  O41  1  0.39098167  0.05405388  0.90261224  1
  O  O42  1  0.87757327  0.85282469  0.49136321  1
  O  O43  1  0.61019395  0.65100210  0.66549095  1
  O  O44  1  0.02776571  0.49463241  0.95086009  1
  O  O45  1  0.96389462  0.28939650  0.64718934  1
  O  O46  1  0.31146312  0.22398612  0.40534188  1
  O  O47  1  0.76507413  0.34294066  0.08586823  1
  O  O48  1  0.95618350  0.88512081  0.22860840  1
  O  O49  1  0.61802349  0.55243626  0.17175096  1
  O  O50  1  0.43084108  0.99284836  0.13298105  1
  O  O51  1  0.07002271  0.09655846  0.40400222  1
  O  O52  1  0.70629037  0.20691145  0.79137937  1
  O  O53  1  0.60495959  0.40895665  0.65567057  1
  O  O54  1  0.61599301  0.90921694  0.57000544  1
  O  O55  1  0.49427894  0.53998207  0.86301642  1
  O  O56  1  0.99555596  0.75379727  0.92648874  1
  O  O57  1  0.64065175  0.08990366  0.02881352  1
  O  O58  1  0.80577472  0.46179844  0.84310409  1
  O  O59  1  0.32033062  0.24885561  0.15802692  1
  O  O60  1  0.55257922  0.31423223  0.25196476  1
  O  O61  1  0.97788327  0.04950921  0.75814425  1
  O  O62  1  0.32796953  0.72246309  0.24844507  1
  O  O63  1  0.51659211  0.31101329  0.97008341  1
  O  O64  1  0.58966512  0.89251881  0.83143611  1
  O  O65  1  0.38764312  0.89347816  0.61896999  1
  O  O66  1  0.68908637  0.51817146  0.41130108  1
  O  O67  1  0.21846204  0.49723038  0.28368042  1
  O  O68  1  0.11873804  0.37117116  0.46491810  1
  O  O69  1  0.24866672  0.65514469  0.95790255  1
  O  O70  1  0.73804726  0.02094218  0.30639135  1
  O  O71  1  0.35588175  0.47699473  0.06688716  1
  O  O72  1  0.02261861  0.62530429  0.44991774  1
  O  O73  1  0.06652634  0.52963996  0.71649435  1
  O  O74  1  0.83281017  0.86459987  0.75763581  1
  O  O75  1  0.25565705  0.62932979  0.54436202  1
  O  O76  1  0.88951099  0.11663374  0.14601418  1
  O  O77  1  0.49467307  0.67238359  0.43890848  1
  O  O78  1  0.20163483  0.16468440  0.92392116  1
  O  O79  1  0.69567297  0.66868471  0.90976678  1
  O  O80  1  0.08786936  0.66291203  0.16577895  1
  O  O81  1  0.07960933  0.22797632  0.20275844  1
  O  O82  1  0.20443481  0.12491839  0.62450277  1
  O  O83  1  0.46169655  0.13839021  0.66859447  1
  O  O84  1  0.79739065  0.09957195  0.57323702  1
  O  O85  1  0.20773866  0.98959039  0.17544860  1
  O  O86  1  0.69744827  0.77220327  0.27426797  1
  O  O87  1  0.80174368  0.28808795  0.33903650  1
  O  O88  1  0.37607214  0.74484425  0.76873735  1
  O  O89  1  0.16698433  0.86364107  0.48900410  1
  O  O90  1  0.09638635  0.80075460  0.70416286  1
  O  O91  1  0.03222279  0.99381773  0.98999624  1
  O  O92  1  0.94812641  0.44406038  0.20291302  1
  O  O93  1  0.51087941  0.77491968  0.03910498  1
  O  O94  1  0.31145462  0.32923590  0.77994626  1
  O  O95  1  0.94150993  0.26608250  0.89208148  1
  O  O96  1  0.84149898  0.63689100  0.10519712  1
  O  O97  1  0.58660511  0.19862470  0.47713812  1
  O  O98  1  0.43276093  0.45031795  0.44381097  1
  O  O99  1  0.76841612  0.86824427  0.04882245  1
