# generated using pymatgen
data_Al2Mo2O7
_symmetry_space_group_name_H-M   'P 1'
_cell_length_a   7.58633311
_cell_length_b   6.42553618
_cell_length_c   7.24950588
_cell_angle_alpha   60.31634171
_cell_angle_beta   65.63575357
_cell_angle_gamma   60.00673099
_symmetry_Int_Tables_number   1
_chemical_formula_structural   Al2Mo2O7
_chemical_formula_sum   'Al4 Mo4 O14'
_cell_volume   259.42805912
_cell_formula_units_Z   2
loop_
 _symmetry_equiv_pos_site_id
 _symmetry_equiv_pos_as_xyz
  1  'x, y, z'
loop_
 _atom_site_type_symbol
 _atom_site_label
 _atom_site_symmetry_multiplicity
 _atom_site_fract_x
 _atom_site_fract_y
 _atom_site_fract_z
 _atom_site_occupancy
  Al  Al0  1  0.41860128  0.96996148  0.55377834  1
  Al  Al1  1  0.91648678  0.53925859  0.49790437  1
  Al  Al2  1  0.59827499  0.36369147  0.13824061  1
  Al  Al3  1  0.49530660  0.53239539  0.49250641  1
  Mo  Mo4  1  0.05865000  0.49369753  0.97704433  1
  Mo  Mo5  1  0.52862466  0.01892159  0.92382323  1
  Mo  Mo6  1  0.97876928  0.01233013  0.49431488  1
  Mo  Mo7  1  0.02693711  0.97822531  0.98020291  1
  O  O8  1  0.63773679  0.66823640  0.54435425  1
  O  O9  1  0.43314003  0.27624380  0.39169923  1
  O  O10  1  0.35531791  0.95290793  0.82730283  1
  O  O11  1  0.92887487  0.67135001  0.73234473  1
  O  O12  1  0.88111400  0.28369566  0.06723312  1
  O  O13  1  0.99449590  0.81860273  0.33353028  1
  O  O14  1  0.34414074  0.38503104  0.78640542  1
  O  O15  1  0.29080686  0.86452542  0.46979797  1
  O  O16  1  0.96882695  0.40335755  0.29527099  1
  O  O17  1  0.55761847  0.65865828  0.16791230  1
  O  O18  1  0.01232618  0.19389858  0.66632580  1
  O  O19  1  0.67808517  0.10699796  0.03667248  1
  O  O20  1  0.68010179  0.18364998  0.60376062  1
  O  O21  1  0.21576665  0.62436218  0.01957590  1
