# generated using pymatgen
data_MgO
_symmetry_space_group_name_H-M   'P 1'
_cell_length_a   10.34368766
_cell_length_b   9.58352587
_cell_length_c   9.59328189
_cell_angle_alpha   91.11336325
_cell_angle_beta   91.69410790
_cell_angle_gamma   87.31937739
_symmetry_Int_Tables_number   1
_chemical_formula_structural   MgO
_chemical_formula_sum   'Mg40 O40'
_cell_volume   949.36148099
_cell_formula_units_Z   40
loop_
 _symmetry_equiv_pos_site_id
 _symmetry_equiv_pos_as_xyz
  1  'x, y, z'
loop_
 _atom_site_type_symbol
 _atom_site_label
 _atom_site_symmetry_multiplicity
 _atom_site_fract_x
 _atom_site_fract_y
 _atom_site_fract_z
 _atom_site_occupancy
  Mg  Mg0  1  0.73843451  0.77005022  0.91942646  1
  Mg  Mg1  1  0.19910730  0.42006202  0.59637120  1
  Mg  Mg2  1  0.85806042  0.50907832  0.17281167  1
  Mg  Mg3  1  0.61922815  0.80912741  0.60699060  1
  Mg  Mg4  1  0.44092088  0.66260082  0.41342825  1
  Mg  Mg5  1  0.26992913  0.70714136  0.06985167  1
  Mg  Mg6  1  0.58229550  0.01750177  0.84004947  1
  Mg  Mg7  1  0.58011067  0.39357231  0.99702038  1
  Mg  Mg8  1  0.89601040  0.57381006  0.55556719  1
  Mg  Mg9  1  0.87227667  0.92578212  0.63030846  1
  Mg  Mg10  1  0.33054286  0.19980766  0.71549921  1
  Mg  Mg11  1  0.96269674  0.78668182  0.37298882  1
  Mg  Mg12  1  0.80001718  0.45181270  0.84661055  1
  Mg  Mg13  1  0.11410830  0.99033039  0.17003044  1
  Mg  Mg14  1  0.01725466  0.65545320  0.98885087  1
  Mg  Mg15  1  0.74565689  0.92947275  0.19043809  1
  Mg  Mg16  1  0.12410683  0.29242219  0.22413250  1
  Mg  Mg17  1  0.87439866  0.16453863  0.22830585  1
  Mg  Mg18  1  0.78388955  0.18690736  0.97195250  1
  Mg  Mg19  1  0.74894176  0.19580639  0.67942321  1
  Mg  Mg20  1  0.02780894  0.07281079  0.44485325  1
  Mg  Mg21  1  0.62805482  0.30386447  0.27973779  1
  Mg  Mg22  1  0.35255116  0.16996301  0.06914625  1
  Mg  Mg23  1  0.27161808  0.44824912  0.89124593  1
  Mg  Mg24  1  0.83576528  0.32090796  0.46592867  1
  Mg  Mg25  1  0.55285679  0.66716780  0.08601286  1
  Mg  Mg26  1  0.15839133  0.58753834  0.35364162  1
  Mg  Mg27  1  0.44929652  0.66793361  0.77379676  1
  Mg  Mg28  1  0.05260219  0.29805425  0.94908969  1
  Mg  Mg29  1  0.31032528  0.19599960  0.41594922  1
  Mg  Mg30  1  0.54430064  0.41744574  0.61587470  1
  Mg  Mg31  1  0.37870961  0.44113137  0.19070582  1
  Mg  Mg32  1  0.01301821  0.23051215  0.67787059  1
  Mg  Mg33  1  0.68858826  0.66476128  0.35374613  1
  Mg  Mg34  1  0.25570822  0.95280762  0.57614779  1
  Mg  Mg35  1  0.12031719  0.73251320  0.71261123  1
  Mg  Mg36  1  0.39783203  0.89920349  0.26286210  1
  Mg  Mg37  1  0.59965220  0.06518345  0.46924349  1
  Mg  Mg38  1  0.31891247  0.91050763  0.90100687  1
  Mg  Mg39  1  0.96643415  0.97486925  0.93187019  1
  O  O40  1  0.75425017  0.98525503  0.98954425  1
  O  O41  1  0.49000511  0.27838233  0.14223130  1
  O  O42  1  0.94140343  0.47088959  0.98426596  1
  O  O43  1  0.69907980  0.09774922  0.29544211  1
  O  O44  1  0.53378001  0.61904900  0.59000472  1
  O  O45  1  0.53574069  0.54637907  0.27295921  1
  O  O46  1  0.54358780  0.84169905  0.39912690  1
  O  O47  1  0.80898777  0.76208346  0.51030833  1
  O  O48  1  0.28653899  0.72437585  0.29812423  1
  O  O49  1  0.92224556  0.78991868  0.82849124  1
  O  O50  1  0.14567135  0.88963190  0.99967103  1
  O  O51  1  0.02242064  0.64389660  0.21496993  1
  O  O52  1  0.27541365  0.07674814  0.24640785  1
  O  O53  1  0.22665560  0.33976769  0.06480368  1
  O  O54  1  0.01822529  0.15592111  0.09064699  1
  O  O55  1  0.81382912  0.50437439  0.37605556  1
  O  O56  1  0.29956337  0.81276117  0.71696501  1
  O  O57  1  0.65735400  0.28018142  0.83889282  1
  O  O58  1  0.37468061  0.40548493  0.69840079  1
  O  O59  1  0.41335021  0.54115028  0.00479216  1
  O  O60  1  0.92299601  0.15567155  0.83511031  1
  O  O61  1  0.39433337  0.09327089  0.88041559  1
  O  O62  1  0.42034195  0.83409775  0.06953962  1
  O  O63  1  0.95229549  0.96245423  0.27319525  1
  O  O64  1  0.66443155  0.57081956  0.92828181  1
  O  O65  1  0.63947716  0.28330165  0.49986909  1
  O  O66  1  0.06528525  0.88565010  0.54603845  1
  O  O67  1  0.68132051  0.00389048  0.65670438  1
  O  O68  1  0.75981636  0.32333495  0.12889697  1
  O  O69  1  0.08982133  0.58753044  0.54945103  1
  O  O70  1  0.73309917  0.72886027  0.15949873  1
  O  O71  1  0.15308489  0.32376900  0.77821853  1
  O  O72  1  0.99142114  0.26541179  0.35575478  1
  O  O73  1  0.57280601  0.81542229  0.81284706  1
  O  O74  1  0.86501517  0.40259747  0.66046447  1
  O  O75  1  0.25907129  0.39763279  0.36465463  1
  O  O76  1  0.17891124  0.62931923  0.89195918  1
  O  O77  1  0.41619684  0.08232928  0.54465247  1
  O  O78  1  0.88632384  0.12676225  0.55872974  1
  O  O79  1  0.17496883  0.15766652  0.56032049  1
