# generated using pymatgen
data_Zn5(SiN3)2
_symmetry_space_group_name_H-M   'P 1'
_cell_length_a   11.26263341
_cell_length_b   11.26263341
_cell_length_c   5.65845882
_cell_angle_alpha   90.00000000
_cell_angle_beta   90.00000000
_cell_angle_gamma   90.00000000
_symmetry_Int_Tables_number   1
_chemical_formula_structural   Zn5(SiN3)2
_chemical_formula_sum   'Zn20 Si8 N24'
_cell_volume   717.75802419
_cell_formula_units_Z   4
loop_
 _symmetry_equiv_pos_site_id
 _symmetry_equiv_pos_as_xyz
  1  'x, y, z'
loop_
 _atom_site_type_symbol
 _atom_site_label
 _atom_site_symmetry_multiplicity
 _atom_site_fract_x
 _atom_site_fract_y
 _atom_site_fract_z
 _atom_site_occupancy
  Zn  Zn0  1  0.22940365  0.09776346  0.91518602  1
  Zn  Zn1  1  0.27059635  0.59776346  0.91518602  1
  Zn  Zn2  1  0.77059635  0.90223654  0.91518602  1
  Zn  Zn3  1  0.72940365  0.40223654  0.91518602  1
  Zn  Zn4  1  0.90223654  0.22940365  0.08481398  1
  Zn  Zn5  1  0.59776346  0.72940365  0.08481398  1
  Zn  Zn6  1  0.09776346  0.77059635  0.08481398  1
  Zn  Zn7  1  0.40223654  0.27059635  0.08481398  1
  Zn  Zn8  1  0.50000000  -0.00000000  -0.00000000  1
  Zn  Zn9  1  0.00000000  0.50000000  -0.00000000  1
  Zn  Zn10  1  0.43980937  0.31347719  0.59838863  1
  Zn  Zn11  1  0.06019063  0.81347719  0.59838863  1
  Zn  Zn12  1  0.56019063  0.68652281  0.59838863  1
  Zn  Zn13  1  0.93980937  0.18652281  0.59838863  1
  Zn  Zn14  1  0.68652281  0.43980937  0.40161137  1
  Zn  Zn15  1  0.81347719  0.93980937  0.40161137  1
  Zn  Zn16  1  0.31347719  0.56019063  0.40161137  1
  Zn  Zn17  1  0.18652281  0.06019063  0.40161137  1
  Zn  Zn18  1  0.50000000  -0.00000000  0.50000000  1
  Zn  Zn19  1  0.00000000  0.50000000  0.50000000  1
  Si  Si20  1  0.61940476  0.20965694  0.75348642  1
  Si  Si21  1  0.88059524  0.70965694  0.75348642  1
  Si  Si22  1  0.38059524  0.79034306  0.75348642  1
  Si  Si23  1  0.11940476  0.29034306  0.75348642  1
  Si  Si24  1  0.79034306  0.61940476  0.24651358  1
  Si  Si25  1  0.70965694  0.11940476  0.24651358  1
  Si  Si26  1  0.20965694  0.38059524  0.24651358  1
  Si  Si27  1  0.29034306  0.88059524  0.24651358  1
  N  N28  1  0.47422017  0.17766805  0.84453412  1
  N  N29  1  0.02577983  0.67766805  0.84453412  1
  N  N30  1  0.52577983  0.82233195  0.84453412  1
  N  N31  1  0.97422017  0.32233195  0.84453412  1
  N  N32  1  0.82233195  0.47422017  0.15546588  1
  N  N33  1  0.67766805  0.97422017  0.15546588  1
  N  N34  1  0.17766805  0.52577983  0.15546588  1
  N  N35  1  0.32233195  0.02577983  0.15546588  1
  N  N36  1  0.62129575  0.35932354  0.66137509  1
  N  N37  1  0.87870425  0.85932354  0.66137509  1
  N  N38  1  0.37870425  0.64067646  0.66137509  1
  N  N39  1  0.12129575  0.14067646  0.66137509  1
  N  N40  1  0.64067646  0.62129575  0.33862491  1
  N  N41  1  0.85932354  0.12129575  0.33862491  1
  N  N42  1  0.35932354  0.37870425  0.33862491  1
  N  N43  1  0.14067646  0.87870425  0.33862491  1
  N  N44  1  0.21245191  0.28754809  -0.00000000  1
  N  N45  1  0.28754809  0.78754809  -0.00000000  1
  N  N46  1  0.78754809  0.71245191  -0.00000000  1
  N  N47  1  0.71245191  0.21245191  -0.00000000  1
  N  N48  1  0.62140125  0.12140125  0.50000000  1
  N  N49  1  0.87859875  0.62140125  0.50000000  1
  N  N50  1  0.37859875  0.87859875  0.50000000  1
  N  N51  1  0.12140125  0.37859875  0.50000000  1
