# generated using pymatgen
data_Al2O3
_symmetry_space_group_name_H-M   'P 1'
_cell_length_a   9.82270289
_cell_length_b   11.22571844
_cell_length_c   10.22962027
_cell_angle_alpha   91.04326162
_cell_angle_beta   86.25696902
_cell_angle_gamma   88.85676984
_symmetry_Int_Tables_number   1
_chemical_formula_structural   Al2O3
_chemical_formula_sum   'Al40 O60'
_cell_volume   1125.14308627
_cell_formula_units_Z   20
loop_
 _symmetry_equiv_pos_site_id
 _symmetry_equiv_pos_as_xyz
  1  'x, y, z'
loop_
 _atom_site_type_symbol
 _atom_site_label
 _atom_site_symmetry_multiplicity
 _atom_site_fract_x
 _atom_site_fract_y
 _atom_site_fract_z
 _atom_site_occupancy
  Al  Al0  1  0.21630862  0.55770719  0.60533163  1
  Al  Al1  1  0.57642526  0.13277620  0.77690776  1
  Al  Al2  1  0.98360469  0.70579317  0.40042409  1
  Al  Al3  1  0.30931119  0.58452191  0.89295068  1
  Al  Al4  1  0.34072444  0.05530880  0.57818514  1
  Al  Al5  1  0.75585071  0.35051580  0.77144616  1
  Al  Al6  1  0.18487914  0.27381511  0.59850999  1
  Al  Al7  1  0.41519411  0.00623924  0.97046356  1
  Al  Al8  1  0.29405010  0.07128595  0.26314903  1
  Al  Al9  1  0.89451543  0.55089939  0.58079930  1
  Al  Al10  1  0.81213648  0.58228153  0.90383254  1
  Al  Al11  1  0.79585188  0.10548754  0.97834894  1
  Al  Al12  1  0.69785696  0.04886427  0.49685756  1
  Al  Al13  1  0.69554954  0.88506722  0.89597948  1
  Al  Al14  1  0.04509062  0.70947285  0.79599215  1
  Al  Al15  1  0.84205031  0.34196335  0.04176475  1
  Al  Al16  1  0.09039660  0.42946097  0.85132506  1
  Al  Al17  1  0.12118471  0.87431549  0.25729588  1
  Al  Al18  1  0.59501638  0.95773944  0.19896667  1
  Al  Al19  1  0.40929513  0.81335809  0.75592900  1
  Al  Al20  1  0.47841185  0.21784133  0.43973942  1
  Al  Al21  1  0.18616612  0.84144925  0.99476033  1
  Al  Al22  1  0.58129385  0.71387768  0.33427460  1
  Al  Al23  1  0.77490613  0.20721244  0.29137436  1
  Al  Al24  1  0.21502291  0.80361975  0.56102013  1
  Al  Al25  1  0.04050791  0.11106443  0.45915370  1
  Al  Al26  1  0.91227412  0.89618926  0.62943980  1
  Al  Al27  1  0.55877066  0.47976607  0.00407354  1
  Al  Al28  1  0.70541852  0.37820072  0.49168476  1
  Al  Al29  1  0.57643772  0.56157801  0.69424828  1
  Al  Al30  1  0.38161825  0.44185581  0.25435391  1
  Al  Al31  1  0.69544208  0.75992906  0.59820379  1
  Al  Al32  1  0.40503889  0.70324713  0.15456875  1
  Al  Al33  1  0.09185956  0.28680903  0.27500214  1
  Al  Al34  1  0.12126343  0.07844749  0.97635356  1
  Al  Al35  1  0.80899571  0.52406919  0.24916867  1
  Al  Al36  1  0.33496993  0.25281146  0.03411305  1
  Al  Al37  1  0.09009054  0.48605691  0.12999389  1
  Al  Al38  1  0.88541195  0.73507304  0.10850041  1
  Al  Al39  1  0.43546353  0.36664692  0.67017456  1
  O  O40  1  0.43293267  0.02250376  0.14460156  1
  O  O41  1  0.33480203  0.90602558  0.63090106  1
  O  O42  1  0.86848261  0.78879543  0.51155966  1
  O  O43  1  0.54925418  0.71566168  0.72055211  1
  O  O44  1  0.92338863  0.45359208  0.92217392  1
  O  O45  1  0.82964504  0.39418294  0.61406819  1
  O  O46  1  0.11754323  0.26601880  0.44302285  1
  O  O47  1  0.80410030  0.25966707  0.89571216  1
  O  O48  1  0.96300122  0.79947684  0.24655762  1
  O  O49  1  0.72678645  0.66589487  0.24094177  1
  O  O50  1  0.45186408  0.15392437  0.92079692  1
  O  O51  1  0.87950158  0.03490490  0.54284065  1
  O  O52  1  0.59317737  0.28554770  0.73865567  1
  O  O53  1  0.42414136  0.49009153  0.79027673  1
  O  O54  1  0.76826677  0.85290334  0.73028429  1
  O  O55  1  0.43688394  0.37840629  0.07903609  1
  O  O56  1  0.28613325  0.74447092  0.86998656  1
  O  O57  1  0.71148045  0.95578601  0.05989903  1
  O  O58  1  0.67021525  0.49637715  0.84139243  1
  O  O59  1  0.24893599  0.20920586  0.19577120  1
  O  O60  1  0.45747454  0.33461422  0.34234300  1
  O  O61  1  0.06894333  0.83169755  0.68221319  1
  O  O62  1  0.14614936  0.78724260  0.40604683  1
  O  O63  1  0.76559287  0.20760270  0.12114462  1
  O  O64  1  0.70251473  0.05056542  0.84706111  1
  O  O65  1  0.59619176  0.80513737  0.47023717  1
  O  O66  1  0.72094756  0.60204157  0.58627103  1
  O  O67  1  0.19832180  0.44334261  0.25359662  1
  O  O68  1  0.15741233  0.57200846  0.77973921  1
  O  O69  1  0.44598885  0.60938262  0.01295244  1
  O  O70  1  0.68103510  0.03938187  0.32190148  1
  O  O71  1  0.44421252  0.59637108  0.27905643  1
  O  O72  1  0.95074238  0.58541605  0.13462484  1
  O  O73  1  0.90211849  0.62343536  0.75529415  1
  O  O74  1  0.02882116  0.76753270  0.96275366  1
  O  O75  1  0.90340201  0.56112937  0.39062479  1
  O  O76  1  0.94599706  0.17497574  0.32401648  1
  O  O77  1  0.31837150  0.68167658  0.59549615  1
  O  O78  1  0.18685519  0.22275697  0.95560034  1
  O  O79  1  0.76552057  0.72668669  0.97608200  1
  O  O80  1  0.24364491  0.76976716  0.14271923  1
  O  O81  1  0.98848631  0.35418853  0.14915281  1
  O  O82  1  0.16166554  0.10470944  0.59610988  1
  O  O83  1  0.39695752  0.08168377  0.40475813  1
  O  O84  1  0.55857551  0.05073433  0.62217084  1
  O  O85  1  0.14202630  0.97157683  0.11612342  1
  O  O86  1  0.51397337  0.81433914  0.21829568  1
  O  O87  1  0.66624504  0.21702292  0.46320732  1
  O  O88  1  0.19638146  0.48162667  0.98409794  1
  O  O89  1  0.15175491  0.00852009  0.35586547  1
  O  O90  1  0.06398214  0.60378996  0.54390002  1
  O  O91  1  0.25620346  0.97366978  0.90459471  1
  O  O92  1  0.75858007  0.38091759  0.32428346  1
  O  O93  1  0.50848551  0.89132811  0.88337223  1
  O  O94  1  0.38176249  0.22036486  0.60619172  1
  O  O95  1  0.08242417  0.32573208  0.73103197  1
  O  O96  1  0.71588045  0.46628274  0.08470312  1
  O  O97  1  0.55490437  0.44430963  0.56761969  1
  O  O98  1  0.28435771  0.41500785  0.58665769  1
  O  O99  1  0.95891130  0.05087635  0.94315960  1
