# generated using pymatgen
data_Cr2O3
_symmetry_space_group_name_H-M   'P 1'
_cell_length_a   10.19248487
_cell_length_b   8.70885106
_cell_length_c   10.35139214
_cell_angle_alpha   90.51101942
_cell_angle_beta   89.27450216
_cell_angle_gamma   87.96596487
_symmetry_Int_Tables_number   1
_chemical_formula_structural   Cr2O3
_chemical_formula_sum   'Cr32 O48'
_cell_volume   918.14668453
_cell_formula_units_Z   16
loop_
 _symmetry_equiv_pos_site_id
 _symmetry_equiv_pos_as_xyz
  1  'x, y, z'
loop_
 _atom_site_type_symbol
 _atom_site_label
 _atom_site_symmetry_multiplicity
 _atom_site_fract_x
 _atom_site_fract_y
 _atom_site_fract_z
 _atom_site_occupancy
  Cr  Cr0  1  0.65448409  0.70209658  0.66749163  1
  Cr  Cr1  1  0.81289237  0.43090375  0.37906486  1
  Cr  Cr2  1  0.98443668  0.15543873  0.86294374  1
  Cr  Cr3  1  0.31591451  0.16217891  0.37517682  1
  Cr  Cr4  1  0.59404761  0.49342647  0.19042249  1
  Cr  Cr5  1  0.82737612  0.98489222  0.13229970  1
  Cr  Cr6  1  0.23743877  0.77259002  0.73275279  1
  Cr  Cr7  1  0.02366846  0.46652692  0.58896578  1
  Cr  Cr8  1  0.40638432  0.61353398  0.45254060  1
  Cr  Cr9  1  0.54578529  0.83799739  0.91583560  1
  Cr  Cr10  1  0.75766125  0.49505772  0.85705026  1
  Cr  Cr11  1  0.10518578  0.31349290  0.14993406  1
  Cr  Cr12  1  0.67876165  0.81978290  0.33331985  1
  Cr  Cr13  1  0.83875745  0.64602985  0.11123751  1
  Cr  Cr14  1  0.96961317  0.79521305  0.82452513  1
  Cr  Cr15  1  0.74050453  0.31034224  0.64252989  1
  Cr  Cr16  1  0.47718739  0.06133638  0.66709631  1
  Cr  Cr17  1  0.07837048  0.48233468  0.87488671  1
  Cr  Cr18  1  0.82616279  0.95587070  0.60612892  1
  Cr  Cr19  1  0.30709808  0.63583092  0.98123085  1
  Cr  Cr20  1  0.37376646  0.85783149  0.23577965  1
  Cr  Cr21  1  0.13135474  0.81270818  0.45673854  1
  Cr  Cr22  1  0.09619288  0.92692214  0.04890497  1
  Cr  Cr23  1  0.84119879  0.30674688  0.11003687  1
  Cr  Cr24  1  0.66068323  0.17091725  0.87112379  1
  Cr  Cr25  1  0.41874595  0.45790177  0.75120461  1
  Cr  Cr26  1  0.07882137  0.61225031  0.26262217  1
  Cr  Cr27  1  0.20672243  0.14334536  0.73533929  1
  Cr  Cr28  1  0.35041502  0.07606318  0.04902904  1
  Cr  Cr29  1  0.32233210  0.44738134  0.21023829  1
  Cr  Cr30  1  0.98242050  0.10016048  0.38544846  1
  Cr  Cr31  1  0.59921115  0.18813899  0.35697027  1
  O  O32  1  0.26846637  0.45575521  0.87161634  1
  O  O33  1  0.30674713  0.96778146  0.68610101  1
  O  O34  1  0.91244330  0.61269509  0.92546305  1
  O  O35  1  0.92792887  0.96268920  0.96166838  1
  O  O36  1  0.72838182  0.47846121  0.04695691  1
  O  O37  1  0.75079936  0.02828229  0.31824259  1
  O  O38  1  0.15120523  0.77274238  0.91930667  1
  O  O39  1  0.70806548  0.82123738  0.10637327  1
  O  O40  1  0.00970971  0.99852216  0.72402085  1
  O  O41  1  0.17897492  0.08443934  0.92147496  1
  O  O42  1  0.73319317  0.61107248  0.28362257  1
  O  O43  1  0.16862853  0.04747527  0.42661620  1
  O  O44  1  0.71129562  0.32213817  0.24985395  1
  O  O45  1  0.97148344  0.14661494  0.19322806  1
  O  O46  1  0.25534763  0.69583099  0.31201800  1
  O  O47  1  0.07974719  0.63063784  0.72324723  1
  O  O48  1  0.40188443  0.83702431  0.04695434  1
  O  O49  1  0.96437837  0.91779216  0.48158130  1
  O  O50  1  0.50282885  0.74819641  0.33838559  1
  O  O51  1  0.60024200  0.36401972  0.78491337  1
  O  O52  1  0.92308472  0.28824797  0.48549481  1
  O  O53  1  0.73251890  0.14656438  0.04301200  1
  O  O54  1  0.19416388  0.34157216  0.32253204  1
  O  O55  1  0.82383526  0.27233597  0.81928082  1
  O  O56  1  0.70316816  0.82233834  0.51373657  1
  O  O57  1  0.46517057  0.42324387  0.33193713  1
  O  O58  1  0.80765452  0.81343546  0.73477476  1
  O  O59  1  0.27109595  0.71265182  0.55632270  1
  O  O60  1  0.00044737  0.32148208  0.99358371  1
  O  O61  1  0.51140407  0.57103144  0.60465044  1
  O  O62  1  0.46920896  0.10193652  0.47705660  1
  O  O63  1  0.67885583  0.10286385  0.68023181  1
  O  O64  1  0.63635695  0.66023175  0.85593603  1
  O  O65  1  0.22512947  0.98046622  0.16934069  1
  O  O66  1  0.44660465  0.07452308  0.23538499  1
  O  O67  1  0.17022545  0.53547562  0.10686997  1
  O  O68  1  0.38764602  0.68258663  0.81779248  1
  O  O69  1  0.49768664  0.06683516  0.90776281  1
  O  O70  1  0.98197545  0.79064099  0.17337762  1
  O  O71  1  0.28828863  0.27615335  0.09697935  1
  O  O72  1  0.94248092  0.46243203  0.21752634  1
  O  O73  1  0.02877347  0.62182366  0.44230857  1
  O  O74  1  0.44527294  0.53504443  0.08887877  1
  O  O75  1  0.66921202  0.33880606  0.47758791  1
  O  O76  1  0.54915222  0.86634728  0.72333433  1
  O  O77  1  0.79016917  0.52266699  0.66453774  1
  O  O78  1  0.06930412  0.31604344  0.74526185  1
  O  O79  1  0.36020984  0.25466474  0.68627705  1
