# generated using pymatgen
data_Mg3(AlN2)2
_symmetry_space_group_name_H-M   'P 1'
_cell_length_a   6.18917495
_cell_length_b   7.27069806
_cell_length_c   5.49035034
_cell_angle_alpha   90.00000172
_cell_angle_beta   89.74500522
_cell_angle_gamma   125.97074474
_symmetry_Int_Tables_number   1
_chemical_formula_structural   Mg3(AlN2)2
_chemical_formula_sum   'Mg6 Al4 N8'
_cell_volume   199.94982557
_cell_formula_units_Z   2
loop_
 _symmetry_equiv_pos_site_id
 _symmetry_equiv_pos_as_xyz
  1  'x, y, z'
loop_
 _atom_site_type_symbol
 _atom_site_label
 _atom_site_symmetry_multiplicity
 _atom_site_fract_x
 _atom_site_fract_y
 _atom_site_fract_z
 _atom_site_occupancy
  Mg  Mg0  1  0.22471126  0.98765524  0.96874051  1
  Mg  Mg1  1  0.77528874  0.76294398  0.53125949  1
  Mg  Mg2  1  0.77528874  0.01234476  0.03125949  1
  Mg  Mg3  1  0.22471126  0.23705602  0.46874051  1
  Mg  Mg4  1  0.00000000  0.59793407  0.75000000  1
  Mg  Mg5  1  -0.00000000  0.40206593  0.25000000  1
  Al  Al6  1  0.62034961  0.18623087  0.60664280  1
  Al  Al7  1  0.37965039  0.56588126  0.89335720  1
  Al  Al8  1  0.37965039  0.81376913  0.39335720  1
  Al  Al9  1  0.62034961  0.43411874  0.10664280  1
  N  N10  1  0.24065525  0.95707078  0.56615964  1
  N  N11  1  0.75934475  0.71641552  0.93384036  1
  N  N12  1  0.75934475  0.04292922  0.43384036  1
  N  N13  1  0.24065525  0.28358448  0.06615964  1
  N  N14  1  0.71722794  0.26735427  0.93305455  1
  N  N15  1  0.28277206  0.55012633  0.56694545  1
  N  N16  1  0.28277206  0.73264573  0.06694545  1
  N  N17  1  0.71722794  0.44987367  0.43305455  1
