# generated using pymatgen
data_Ca3Ga3N5
_symmetry_space_group_name_H-M   'P 1'
_cell_length_a   5.91046523
_cell_length_b   6.88336165
_cell_length_c   8.47565379
_cell_angle_alpha   107.47635000
_cell_angle_beta   105.46495334
_cell_angle_gamma   95.17476194
_symmetry_Int_Tables_number   1
_chemical_formula_structural   Ca3Ga3N5
_chemical_formula_sum   'Ca6 Ga6 N10'
_cell_volume   311.51244279
_cell_formula_units_Z   2
loop_
 _symmetry_equiv_pos_site_id
 _symmetry_equiv_pos_as_xyz
  1  'x, y, z'
loop_
 _atom_site_type_symbol
 _atom_site_label
 _atom_site_symmetry_multiplicity
 _atom_site_fract_x
 _atom_site_fract_y
 _atom_site_fract_z
 _atom_site_occupancy
  Ca  Ca0  1  0.81833856  0.41169842  0.60731166  1
  Ca  Ca1  1  0.18166144  0.58830158  0.39268834  1
  Ca  Ca2  1  0.65918359  0.86530277  0.87845332  1
  Ca  Ca3  1  0.34081641  0.13469723  0.12154668  1
  Ca  Ca4  1  0.65527140  0.63744553  0.19693199  1
  Ca  Ca5  1  0.34472860  0.36255447  0.80306801  1
  Ga  Ga6  1  0.90592112  0.31138335  0.96886308  1
  Ga  Ga7  1  0.09407888  0.68861665  0.03113692  1
  Ga  Ga8  1  0.71200673  0.94406084  0.56312777  1
  Ga  Ga9  1  0.28799327  0.05593916  0.43687223  1
  Ga  Ga10  1  0.13499086  0.86718015  0.71585417  1
  Ga  Ga11  1  0.86500914  0.13281985  0.28414583  1
  N  N12  1  0.97010850  0.10524958  0.77916568  1
  N  N13  1  0.02989150  0.89475042  0.22083432  1
  N  N14  1  0.84955041  0.69483908  0.50924577  1
  N  N15  1  0.15044959  0.30516092  0.49075423  1
  N  N16  1  0.75647701  0.52955168  0.88984475  1
  N  N17  1  0.24352299  0.47044832  0.11015525  1
  N  N18  1  0.39595239  0.93161098  0.61762746  1
  N  N19  1  0.60404761  0.06838902  0.38237254  1
  N  N20  1  0.28454337  0.77141170  0.90299948  1
  N  N21  1  0.71545663  0.22858830  0.09700052  1
