# generated using pymatgen
data_Y(C2N3)3
_symmetry_space_group_name_H-M   'P 1'
_cell_length_a   7.13755085
_cell_length_b   12.10560567
_cell_length_c   11.31872577
_cell_angle_alpha   90.00000000
_cell_angle_beta   90.00000000
_cell_angle_gamma   32.00278668
_symmetry_Int_Tables_number   1
_chemical_formula_structural   Y(C2N3)3
_chemical_formula_sum   'Y2 C12 N18'
_cell_volume   518.29472132
_cell_formula_units_Z   2
loop_
 _symmetry_equiv_pos_site_id
 _symmetry_equiv_pos_as_xyz
  1  'x, y, z'
loop_
 _atom_site_type_symbol
 _atom_site_label
 _atom_site_symmetry_multiplicity
 _atom_site_fract_x
 _atom_site_fract_y
 _atom_site_fract_z
 _atom_site_occupancy
  Y  Y0  1  0.00000000  0.28214703  0.25000000  1
  Y  Y1  1  1.00000000  0.71785297  0.75000000  1
  C  C2  1  0.70013466  0.74174411  0.25000000  1
  C  C3  1  0.70013466  0.55812123  0.75000000  1
  C  C4  1  0.29986534  0.25825589  0.75000000  1
  C  C5  1  0.29986534  0.44187877  0.25000000  1
  C  C6  1  0.69953801  0.29434305  0.93104529  1
  C  C7  1  0.69953801  0.00611995  0.06895471  1
  C  C8  1  0.69953801  0.29434305  0.56895471  1
  C  C9  1  0.69953801  0.00611995  0.43104529  1
  C  C10  1  0.30046199  0.70565695  0.06895471  1
  C  C11  1  0.30046199  0.99388005  0.93104529  1
  C  C12  1  0.30046199  0.70565695  0.43104529  1
  C  C13  1  0.30046199  0.99388005  0.56895471  1
  N  N14  1  0.00000000  0.53985074  0.25000000  1
  N  N15  1  1.00000000  0.46014926  0.75000000  1
  N  N16  1  0.41815893  0.92420753  0.25000000  1
  N  N17  1  0.41815893  0.65763254  0.75000000  1
  N  N18  1  0.58184107  0.07579247  0.75000000  1
  N  N19  1  0.58184107  0.34236746  0.25000000  1
  N  N20  1  0.00000000  0.13950223  0.98493361  1
  N  N21  1  1.00000000  0.86049777  0.01506639  1
  N  N22  1  0.00000000  0.13950223  0.51506639  1
  N  N23  1  1.00000000  0.86049777  0.48493361  1
  N  N24  1  0.41457634  0.44173845  0.88914093  1
  N  N25  1  0.41457634  0.14368621  0.11085907  1
  N  N26  1  0.41457634  0.44173845  0.61085907  1
  N  N27  1  0.41457634  0.14368621  0.38914093  1
  N  N28  1  0.58542366  0.55826155  0.11085907  1
  N  N29  1  0.58542366  0.85631379  0.88914093  1
  N  N30  1  0.58542366  0.55826155  0.38914093  1
  N  N31  1  0.58542366  0.85631379  0.61085907  1
