# generated using pymatgen
data_Ca5MgN4
_symmetry_space_group_name_H-M   'P 1'
_cell_length_a   7.93676779
_cell_length_b   7.58976977
_cell_length_c   5.86616420
_cell_angle_alpha   90.00000000
_cell_angle_beta   90.00000000
_cell_angle_gamma   90.00000000
_symmetry_Int_Tables_number   1
_chemical_formula_structural   Ca5MgN4
_chemical_formula_sum   'Ca10 Mg2 N8'
_cell_volume   353.36740839
_cell_formula_units_Z   2
loop_
 _symmetry_equiv_pos_site_id
 _symmetry_equiv_pos_as_xyz
  1  'x, y, z'
loop_
 _atom_site_type_symbol
 _atom_site_label
 _atom_site_symmetry_multiplicity
 _atom_site_fract_x
 _atom_site_fract_y
 _atom_site_fract_z
 _atom_site_occupancy
  Ca  Ca0  1  0.55072855  0.50198944  0.24505651  1
  Ca  Ca1  1  0.94927145  0.50198944  0.24505651  1
  Ca  Ca2  1  0.55072855  0.99801056  0.24505651  1
  Ca  Ca3  1  0.94927145  0.99801056  0.24505651  1
  Ca  Ca4  1  0.44927145  0.49801056  0.75494349  1
  Ca  Ca5  1  0.05072855  0.49801056  0.75494349  1
  Ca  Ca6  1  0.44927145  0.00198944  0.75494349  1
  Ca  Ca7  1  0.05072855  0.00198944  0.75494349  1
  Ca  Ca8  1  0.75000000  0.75000000  0.70277133  1
  Ca  Ca9  1  0.25000000  0.25000000  0.29722867  1
  Mg  Mg10  1  0.75000000  0.25000000  0.71861889  1
  Mg  Mg11  1  0.25000000  0.75000000  0.28138111  1
  N  N12  1  0.75000000  0.00938702  0.92268702  1
  N  N13  1  0.75000000  0.49061298  0.92268702  1
  N  N14  1  0.25000000  0.99061298  0.07731298  1
  N  N15  1  0.25000000  0.50938702  0.07731298  1
  N  N16  1  0.49087587  0.75000000  0.48785581  1
  N  N17  1  0.00912413  0.75000000  0.48785581  1
  N  N18  1  0.50912413  0.25000000  0.51214419  1
  N  N19  1  0.99087587  0.25000000  0.51214419  1
