# generated using pymatgen
data_Rb3BN2
_symmetry_space_group_name_H-M   'P 1'
_cell_length_a   6.90224691
_cell_length_b   9.18725110
_cell_length_c   9.52526965
_cell_angle_alpha   90.00000000
_cell_angle_beta   111.60439755
_cell_angle_gamma   90.00000000
_symmetry_Int_Tables_number   1
_chemical_formula_structural   Rb3BN2
_chemical_formula_sum   'Rb12 B4 N8'
_cell_volume   561.58916017
_cell_formula_units_Z   4
loop_
 _symmetry_equiv_pos_site_id
 _symmetry_equiv_pos_as_xyz
  1  'x, y, z'
loop_
 _atom_site_type_symbol
 _atom_site_label
 _atom_site_symmetry_multiplicity
 _atom_site_fract_x
 _atom_site_fract_y
 _atom_site_fract_z
 _atom_site_occupancy
  Rb  Rb0  1  0.25325583  0.04695786  0.99554396  1
  Rb  Rb1  1  0.74674417  0.54695786  0.50445604  1
  Rb  Rb2  1  0.74674417  0.95304214  0.00445604  1
  Rb  Rb3  1  0.25325583  0.45304214  0.49554396  1
  Rb  Rb4  1  0.23332450  0.46143455  0.88620778  1
  Rb  Rb5  1  0.76667550  0.96143455  0.61379222  1
  Rb  Rb6  1  0.76667550  0.53856545  0.11379222  1
  Rb  Rb7  1  0.23332450  0.03856545  0.38620778  1
  Rb  Rb8  1  0.74167686  0.29535234  0.81062607  1
  Rb  Rb9  1  0.25832314  0.79535234  0.68937393  1
  Rb  Rb10  1  0.25832314  0.70464766  0.18937393  1
  Rb  Rb11  1  0.74167686  0.20464766  0.31062607  1
  B  B12  1  0.20750549  0.17474535  0.68122465  1
  B  B13  1  0.79249451  0.67474535  0.81877535  1
  B  B14  1  0.79249451  0.82525465  0.31877535  1
  B  B15  1  0.20750549  0.32525465  0.18122465  1
  N  N16  1  0.39013779  0.09902722  0.72921309  1
  N  N17  1  0.60986221  0.59902722  0.77078691  1
  N  N18  1  0.60986221  0.90097278  0.27078691  1
  N  N19  1  0.39013779  0.40097278  0.22921309  1
  N  N20  1  0.02542749  0.25108991  0.63404892  1
  N  N21  1  0.97457251  0.75108991  0.86595108  1
  N  N22  1  0.97457251  0.74891009  0.36595108  1
  N  N23  1  0.02542749  0.24891009  0.13404892  1
