# generated using pymatgen
data_Zn7SiN6
_symmetry_space_group_name_H-M   'P 1'
_cell_length_a   10.18855834
_cell_length_b   5.55789150
_cell_length_c   12.58375733
_cell_angle_alpha   90.00000000
_cell_angle_beta   90.00000000
_cell_angle_gamma   90.00000000
_symmetry_Int_Tables_number   1
_chemical_formula_structural   Zn7SiN6
_chemical_formula_sum   'Zn28 Si4 N24'
_cell_volume   712.57919054
_cell_formula_units_Z   4
loop_
 _symmetry_equiv_pos_site_id
 _symmetry_equiv_pos_as_xyz
  1  'x, y, z'
loop_
 _atom_site_type_symbol
 _atom_site_label
 _atom_site_symmetry_multiplicity
 _atom_site_fract_x
 _atom_site_fract_y
 _atom_site_fract_z
 _atom_site_occupancy
  Zn  Zn0  1  0.98397993  0.72651755  0.04094705  1
  Zn  Zn1  1  0.51602007  0.77348245  0.54094705  1
  Zn  Zn2  1  0.48397993  0.77348245  0.95905295  1
  Zn  Zn3  1  0.01602007  0.72651755  0.45905295  1
  Zn  Zn4  1  0.01602007  0.27348245  0.95905295  1
  Zn  Zn5  1  0.48397993  0.22651755  0.45905295  1
  Zn  Zn6  1  0.51602007  0.22651755  0.04094705  1
  Zn  Zn7  1  0.98397993  0.27348245  0.54094705  1
  Zn  Zn8  1  0.23864975  0.64049302  0.65480834  1
  Zn  Zn9  1  0.26135025  0.85950698  0.15480834  1
  Zn  Zn10  1  0.73864975  0.85950698  0.34519166  1
  Zn  Zn11  1  0.76135025  0.64049302  0.84519166  1
  Zn  Zn12  1  0.76135025  0.35950698  0.34519166  1
  Zn  Zn13  1  0.73864975  0.14049302  0.84519166  1
  Zn  Zn14  1  0.26135025  0.14049302  0.65480834  1
  Zn  Zn15  1  0.23864975  0.35950698  0.15480834  1
  Zn  Zn16  1  0.21341232  0.72191041  0.92074776  1
  Zn  Zn17  1  0.28658768  0.77808959  0.42074776  1
  Zn  Zn18  1  0.71341232  0.77808959  0.07925224  1
  Zn  Zn19  1  0.78658768  0.72191041  0.57925224  1
  Zn  Zn20  1  0.78658768  0.27808959  0.07925224  1
  Zn  Zn21  1  0.71341232  0.22191041  0.57925224  1
  Zn  Zn22  1  0.28658768  0.22191041  0.92074776  1
  Zn  Zn23  1  0.21341232  0.27808959  0.42074776  1
  Zn  Zn24  1  -0.00000000  0.42209380  0.75000000  1
  Zn  Zn25  1  0.50000000  0.07790620  0.25000000  1
  Zn  Zn26  1  -0.00000000  0.57790620  0.25000000  1
  Zn  Zn27  1  0.50000000  0.92209380  0.75000000  1
  Si  Si28  1  -0.00000000  0.91627326  0.75000000  1
  Si  Si29  1  0.50000000  0.58372674  0.25000000  1
  Si  Si30  1  -0.00000000  0.08372674  0.25000000  1
  Si  Si31  1  0.50000000  0.41627326  0.75000000  1
  N  N32  1  0.12723228  0.71301737  0.78250122  1
  N  N33  1  0.37276772  0.78698263  0.28250122  1
  N  N34  1  0.62723228  0.78698263  0.21749878  1
  N  N35  1  0.87276772  0.71301737  0.71749878  1
  N  N36  1  0.87276772  0.28698263  0.21749878  1
  N  N37  1  0.62723228  0.21301737  0.71749878  1
  N  N38  1  0.37276772  0.21301737  0.78250122  1
  N  N39  1  0.12723228  0.28698263  0.28250122  1
  N  N40  1  0.16791223  0.56809013  0.51053120  1
  N  N41  1  0.33208777  0.93190987  0.01053120  1
  N  N42  1  0.66791223  0.93190987  0.48946880  1
  N  N43  1  0.83208777  0.56809013  0.98946880  1
  N  N44  1  0.83208777  0.43190987  0.48946880  1
  N  N45  1  0.66791223  0.06809013  0.98946880  1
  N  N46  1  0.33208777  0.06809013  0.51053120  1
  N  N47  1  0.16791223  0.43190987  0.01053120  1
  N  N48  1  0.43514879  0.62173072  0.65652319  1
  N  N49  1  0.06485121  0.87826928  0.15652319  1
  N  N50  1  0.93514879  0.87826928  0.34347681  1
  N  N51  1  0.56485121  0.62173072  0.84347681  1
  N  N52  1  0.56485121  0.37826928  0.34347681  1
  N  N53  1  0.93514879  0.12173072  0.84347681  1
  N  N54  1  0.06485121  0.12173072  0.65652319  1
  N  N55  1  0.43514879  0.37826928  0.15652319  1
