# generated using pymatgen
data_MnAlO3
_symmetry_space_group_name_H-M   'P 1'
_cell_length_a   6.02576286
_cell_length_b   6.00854844
_cell_length_c   10.61448177
_cell_angle_alpha   89.99296145
_cell_angle_beta   90.00154547
_cell_angle_gamma   127.36064098
_symmetry_Int_Tables_number   1
_chemical_formula_structural   MnAlO3
_chemical_formula_sum   'Mn6 Al6 O18'
_cell_volume   305.46084973
_cell_formula_units_Z   6
loop_
 _symmetry_equiv_pos_site_id
 _symmetry_equiv_pos_as_xyz
  1  'x, y, z'
loop_
 _atom_site_type_symbol
 _atom_site_label
 _atom_site_symmetry_multiplicity
 _atom_site_fract_x
 _atom_site_fract_y
 _atom_site_fract_z
 _atom_site_occupancy
  Mn  Mn0  1  0.65507373  0.98715463  0.49150155  1
  Mn  Mn1  1  0.68240550  0.68140410  0.01637061  1
  Mn  Mn2  1  0.01401051  0.34414046  0.99189725  1
  Mn  Mn3  1  0.98583779  0.65572960  0.49187210  1
  Mn  Mn4  1  0.31748006  0.31857729  0.51628299  1
  Mn  Mn5  1  0.34583237  0.01365499  0.99159736  1
  Al  Al6  1  0.64322532  0.33385242  0.23880803  1
  Al  Al7  1  0.35716981  0.66596684  0.73896025  1
  Al  Al8  1  0.66683496  0.35792797  0.73927633  1
  Al  Al9  1  0.33308318  0.64165996  0.23932588  1
  Al  Al10  1  0.96885309  0.97022821  0.75903115  1
  Al  Al11  1  0.03116547  0.02973599  0.25894407  1
  O  O12  1  0.74022473  0.39659155  0.04890899  1
  O  O13  1  0.26007487  0.60363746  0.54899893  1
  O  O14  1  0.60219285  0.26169142  0.54926587  1
  O  O15  1  0.39823803  0.73875693  0.04990371  1
  O  O16  1  0.06279269  0.06163629  0.93211587  1
  O  O17  1  0.93715765  0.93821545  0.43208306  1
  O  O18  1  0.44144356  0.00845545  0.82131603  1
  O  O19  1  0.37346471  0.37460228  0.34012144  1
  O  O20  1  0.99141190  0.55970799  0.32147535  1
  O  O21  1  0.00868959  0.44006562  0.82139924  1
  O  O22  1  0.62557381  0.62534425  0.84038200  1
  O  O23  1  0.55839849  0.99148141  0.32130476  1
  O  O24  1  0.29246556  0.04795060  0.16474520  1
  O  O25  1  0.29096627  0.29250012  0.69414045  1
  O  O26  1  0.95323647  0.70888677  0.66551113  1
  O  O27  1  0.04566301  0.29043639  0.16541819  1
  O  O28  1  0.70928746  0.70736529  0.19415778  1
  O  O29  1  0.70774656  0.95264229  0.66488842  1
