# generated using pymatgen
data_MoO4
_symmetry_space_group_name_H-M   'P 1'
_cell_length_a   7.72963132
_cell_length_b   6.69017390
_cell_length_c   3.77368843
_cell_angle_alpha   105.25675746
_cell_angle_beta   88.30404621
_cell_angle_gamma   114.98049420
_symmetry_Int_Tables_number   1
_chemical_formula_structural   MoO4
_chemical_formula_sum   'Mo2 O8'
_cell_volume   169.91380991
_cell_formula_units_Z   2
loop_
 _symmetry_equiv_pos_site_id
 _symmetry_equiv_pos_as_xyz
  1  'x, y, z'
loop_
 _atom_site_type_symbol
 _atom_site_label
 _atom_site_symmetry_multiplicity
 _atom_site_fract_x
 _atom_site_fract_y
 _atom_site_fract_z
 _atom_site_occupancy
  Mo  Mo0  1  0.79621115  0.96256453  0.74523708  1
  Mo  Mo1  1  0.20378885  0.03743547  0.25476292  1
  O  O2  1  0.55158395  0.79376022  0.67993358  1
  O  O3  1  0.44841605  0.20623978  0.32006642  1
  O  O4  1  0.12858088  0.06210684  0.77049721  1
  O  O5  1  0.87141912  0.93789316  0.22950279  1
  O  O6  1  0.82000659  0.23948840  0.87528809  1
  O  O7  1  0.17999341  0.76051160  0.12471191  1
  O  O8  1  0.81435955  0.61603631  0.58762059  1
  O  O9  1  0.18564045  0.38396369  0.41237941  1
