# generated using pymatgen
data_Ca(GeN)2
_symmetry_space_group_name_H-M   'P 1'
_cell_length_a   3.20168196
_cell_length_b   3.20150882
_cell_length_c   8.85056773
_cell_angle_alpha   89.99582124
_cell_angle_beta   89.99600614
_cell_angle_gamma   119.99979705
_symmetry_Int_Tables_number   1
_chemical_formula_structural   Ca(GeN)2
_chemical_formula_sum   'Ca1 Ge2 N2'
_cell_volume   78.56616186
_cell_formula_units_Z   1
loop_
 _symmetry_equiv_pos_site_id
 _symmetry_equiv_pos_as_xyz
  1  'x, y, z'
loop_
 _atom_site_type_symbol
 _atom_site_label
 _atom_site_symmetry_multiplicity
 _atom_site_fract_x
 _atom_site_fract_y
 _atom_site_fract_z
 _atom_site_occupancy
  Ca  Ca0  1  0.00000000  0.00000000  0.50000000  1
  Ge  Ge1  1  0.66675916  0.33343327  0.19601931  1
  Ge  Ge2  1  0.33324084  0.66656673  0.80398069  1
  N  N3  1  0.66661764  0.33327967  0.67913485  1
  N  N4  1  0.33338236  0.66672033  0.32086515  1
