# generated using pymatgen
data_TaGaN2
_symmetry_space_group_name_H-M   'P 1'
_cell_length_a   5.69883494
_cell_length_b   11.84814316
_cell_length_c   16.19664219
_cell_angle_alpha   90.00000000
_cell_angle_beta   90.00000000
_cell_angle_gamma   90.00000000
_symmetry_Int_Tables_number   1
_chemical_formula_structural   TaGaN2
_chemical_formula_sum   'Ta16 Ga16 N32'
_cell_volume   1093.60719649
_cell_formula_units_Z   16
loop_
 _symmetry_equiv_pos_site_id
 _symmetry_equiv_pos_as_xyz
  1  'x, y, z'
loop_
 _atom_site_type_symbol
 _atom_site_label
 _atom_site_symmetry_multiplicity
 _atom_site_fract_x
 _atom_site_fract_y
 _atom_site_fract_z
 _atom_site_occupancy
  Ta  Ta0  1  0.78265024  0.99521583  0.30912220  1
  Ta  Ta1  1  0.28265024  0.50478417  0.69087780  1
  Ta  Ta2  1  0.21734976  0.49521583  0.19087780  1
  Ta  Ta3  1  0.71734976  0.00478417  0.80912220  1
  Ta  Ta4  1  0.21734976  0.00478417  0.69087780  1
  Ta  Ta5  1  0.71734976  0.49521583  0.30912220  1
  Ta  Ta6  1  0.78265024  0.50478417  0.80912220  1
  Ta  Ta7  1  0.28265024  0.99521583  0.19087780  1
  Ta  Ta8  1  0.74801301  0.26164286  0.43670667  1
  Ta  Ta9  1  0.24801301  0.23835714  0.56329333  1
  Ta  Ta10  1  0.25198699  0.76164286  0.06329333  1
  Ta  Ta11  1  0.75198699  0.73835714  0.93670667  1
  Ta  Ta12  1  0.25198699  0.73835714  0.56329333  1
  Ta  Ta13  1  0.75198699  0.76164286  0.43670667  1
  Ta  Ta14  1  0.74801301  0.23835714  0.93670667  1
  Ta  Ta15  1  0.24801301  0.26164286  0.06329333  1
  Ga  Ga16  1  0.26860180  0.96524703  0.42780777  1
  Ga  Ga17  1  0.76860180  0.53475297  0.57219223  1
  Ga  Ga18  1  0.73139820  0.46524703  0.07219223  1
  Ga  Ga19  1  0.23139820  0.03475297  0.92780777  1
  Ga  Ga20  1  0.73139820  0.03475297  0.57219223  1
  Ga  Ga21  1  0.23139820  0.46524703  0.42780777  1
  Ga  Ga22  1  0.26860180  0.53475297  0.92780777  1
  Ga  Ga23  1  0.76860180  0.96524703  0.07219223  1
  Ga  Ga24  1  0.20763922  0.18624121  0.35483889  1
  Ga  Ga25  1  0.70763922  0.31375879  0.64516111  1
  Ga  Ga26  1  0.79236078  0.68624121  0.14516111  1
  Ga  Ga27  1  0.29236078  0.81375879  0.85483889  1
  Ga  Ga28  1  0.79236078  0.81375879  0.64516111  1
  Ga  Ga29  1  0.29236078  0.68624121  0.35483889  1
  Ga  Ga30  1  0.20763922  0.31375879  0.85483889  1
  Ga  Ga31  1  0.70763922  0.18624121  0.14516111  1
  N  N32  1  0.07556848  0.30034805  0.46606616  1
  N  N33  1  0.57556848  0.19965195  0.53393384  1
  N  N34  1  0.92443152  0.80034805  0.03393384  1
  N  N35  1  0.42443152  0.69965195  0.96606616  1
  N  N36  1  0.92443152  0.69965195  0.53393384  1
  N  N37  1  0.42443152  0.80034805  0.46606616  1
  N  N38  1  0.07556848  0.19965195  0.96606616  1
  N  N39  1  0.57556848  0.30034805  0.03393384  1
  N  N40  1  0.58870988  0.39148876  0.39105944  1
  N  N41  1  0.08870988  0.10851124  0.60894056  1
  N  N42  1  0.41129012  0.89148876  0.10894056  1
  N  N43  1  0.91129012  0.60851124  0.89105944  1
  N  N44  1  0.41129012  0.60851124  0.60894056  1
  N  N45  1  0.91129012  0.89148876  0.39105944  1
  N  N46  1  0.58870988  0.10851124  0.89105944  1
  N  N47  1  0.08870988  0.39148876  0.10894056  1
  N  N48  1  0.82612829  0.14779476  0.35490494  1
  N  N49  1  0.32612829  0.35220524  0.64509506  1
  N  N50  1  0.17387171  0.64779476  0.14509506  1
  N  N51  1  0.67387171  0.85220524  0.85490494  1
  N  N52  1  0.17387171  0.85220524  0.64509506  1
  N  N53  1  0.67387171  0.64779476  0.35490494  1
  N  N54  1  0.82612829  0.35220524  0.85490494  1
  N  N55  1  0.32612829  0.14779476  0.14509506  1
  N  N56  1  0.54864444  0.46918191  0.20544077  1
  N  N57  1  0.04864444  0.03081809  0.79455923  1
  N  N58  1  0.45135556  0.96918191  0.29455923  1
  N  N59  1  0.95135556  0.53081809  0.70544077  1
  N  N60  1  0.45135556  0.53081809  0.79455923  1
  N  N61  1  0.95135556  0.96918191  0.20544077  1
  N  N62  1  0.54864444  0.03081809  0.70544077  1
  N  N63  1  0.04864444  0.46918191  0.29455923  1
