# generated using pymatgen
data_CaC7N10
_symmetry_space_group_name_H-M   'P 1'
_cell_length_a   5.83237469
_cell_length_b   5.65559300
_cell_length_c   8.09806112
_cell_angle_alpha   90.00000000
_cell_angle_beta   106.28687316
_cell_angle_gamma   90.00000000
_symmetry_Int_Tables_number   1
_chemical_formula_structural   CaC7N10
_chemical_formula_sum   'Ca2 C14 N20'
_cell_volume   256.39930224
_cell_formula_units_Z   2
loop_
 _symmetry_equiv_pos_site_id
 _symmetry_equiv_pos_as_xyz
  1  'x, y, z'
loop_
 _atom_site_type_symbol
 _atom_site_label
 _atom_site_symmetry_multiplicity
 _atom_site_fract_x
 _atom_site_fract_y
 _atom_site_fract_z
 _atom_site_occupancy
  Ca  Ca0  1  0.96886477  0.11488765  0.67265166  1
  Ca  Ca1  1  0.96886477  0.88511235  0.17265166  1
  C  C2  1  0.54141262  0.97506668  0.82839150  1
  C  C3  1  0.54141262  0.02493332  0.32839150  1
  C  C4  1  0.35543574  0.02896978  0.02032566  1
  C  C5  1  0.35543574  0.97103022  0.52032566  1
  C  C6  1  0.10906130  0.39065916  0.07333249  1
  C  C7  1  0.10906130  0.60934084  0.57333249  1
  C  C8  1  0.66341640  0.36723654  0.98976330  1
  C  C9  1  0.66341640  0.63276346  0.48976330  1
  C  C10  1  0.84280437  0.63139951  0.80836605  1
  C  C11  1  0.84280437  0.36860049  0.30836605  1
  C  C12  1  0.29624195  0.62372280  0.88592145  1
  C  C13  1  0.29624195  0.37627720  0.38592145  1
  C  C14  1  0.48372501  0.37540207  0.68588400  1
  C  C15  1  0.48372501  0.62459793  0.18588400  1
  N  N16  1  0.75363170  0.84983948  0.83628368  1
  N  N17  1  0.75363170  0.15016052  0.33628368  1
  N  N18  1  0.57862453  0.12422981  0.98306602  1
  N  N19  1  0.57862453  0.87577019  0.48306602  1
  N  N20  1  0.31724568  0.87564842  0.86572721  1
  N  N21  1  0.31724568  0.12435158  0.36572721  1
  N  N22  1  0.14977722  0.16757656  0.00835104  1
  N  N23  1  0.14977722  0.83242344  0.50835104  1
  N  N24  1  0.28266652  0.50306683  0.72597830  1
  N  N25  1  0.28266652  0.49693317  0.22597830  1
  N  N26  1  0.43521776  0.11854257  0.67589367  1
  N  N27  1  0.43521776  0.88145743  0.17589367  1
  N  N28  1  0.88215294  0.40862992  0.12495035  1
  N  N29  1  0.88215294  0.59137008  0.62495035  1
  N  N30  1  0.07956590  0.59424801  0.94220409  1
  N  N31  1  0.07956590  0.40575199  0.44220409  1
  N  N32  1  0.70559130  0.41010680  0.82125736  1
  N  N33  1  0.70559130  0.58989320  0.32125736  1
  N  N34  1  0.49686428  0.54086052  0.02095215  1
  N  N35  1  0.49686428  0.45913948  0.52095215  1
