# generated using pymatgen
data_Ca5ZnN4
_symmetry_space_group_name_H-M   'P 1'
_cell_length_a   7.82109576
_cell_length_b   7.52410321
_cell_length_c   5.90240027
_cell_angle_alpha   90.00000000
_cell_angle_beta   90.00000000
_cell_angle_gamma   90.00000000
_symmetry_Int_Tables_number   1
_chemical_formula_structural   Ca5ZnN4
_chemical_formula_sum   'Ca10 Zn2 N8'
_cell_volume   347.33696515
_cell_formula_units_Z   2
loop_
 _symmetry_equiv_pos_site_id
 _symmetry_equiv_pos_as_xyz
  1  'x, y, z'
loop_
 _atom_site_type_symbol
 _atom_site_label
 _atom_site_symmetry_multiplicity
 _atom_site_fract_x
 _atom_site_fract_y
 _atom_site_fract_z
 _atom_site_occupancy
  Ca  Ca0  1  0.54712204  0.50564704  0.24397434  1
  Ca  Ca1  1  0.95287796  0.50564704  0.24397434  1
  Ca  Ca2  1  0.54712204  0.99435296  0.24397434  1
  Ca  Ca3  1  0.95287796  0.99435296  0.24397434  1
  Ca  Ca4  1  0.45287796  0.49435296  0.75602566  1
  Ca  Ca5  1  0.04712204  0.49435296  0.75602566  1
  Ca  Ca6  1  0.45287796  0.00564704  0.75602566  1
  Ca  Ca7  1  0.04712204  0.00564704  0.75602566  1
  Ca  Ca8  1  0.75000000  0.75000000  0.69800321  1
  Ca  Ca9  1  0.25000000  0.25000000  0.30199679  1
  Zn  Zn10  1  0.75000000  0.25000000  0.71033489  1
  Zn  Zn11  1  0.25000000  0.75000000  0.28966511  1
  N  N12  1  0.75000000  0.00951788  0.92163953  1
  N  N13  1  0.75000000  0.49048212  0.92163953  1
  N  N14  1  0.25000000  0.99048212  0.07836047  1
  N  N15  1  0.25000000  0.50951788  0.07836047  1
  N  N16  1  0.49167564  0.75000000  0.49037861  1
  N  N17  1  0.00832436  0.75000000  0.49037861  1
  N  N18  1  0.50832436  0.25000000  0.50962139  1
  N  N19  1  0.99167564  0.25000000  0.50962139  1
