# generated using pymatgen
data_Sb26O53
_symmetry_space_group_name_H-M   'P 1'
_cell_length_a   4.98277354
_cell_length_b   5.55387644
_cell_length_c   44.57884954
_cell_angle_alpha   102.05060231
_cell_angle_beta   113.70835259
_cell_angle_gamma   90.33493641
_symmetry_Int_Tables_number   1
_chemical_formula_structural   Sb26O53
_chemical_formula_sum   'Sb26 O53'
_cell_volume   1099.08689495
_cell_formula_units_Z   1
loop_
 _symmetry_equiv_pos_site_id
 _symmetry_equiv_pos_as_xyz
  1  'x, y, z'
loop_
 _atom_site_type_symbol
 _atom_site_label
 _atom_site_symmetry_multiplicity
 _atom_site_fract_x
 _atom_site_fract_y
 _atom_site_fract_z
 _atom_site_occupancy
  Sb  Sb0  1  0.25478427  0.70795539  0.86928337  1
  Sb  Sb1  1  0.59278117  0.41527517  0.93854255  1
  Sb  Sb2  1  0.23394377  0.73814366  0.72209619  1
  Sb  Sb3  1  0.52970199  0.47186647  0.79573036  1
  Sb  Sb4  1  0.83437376  0.19515397  0.86922365  1
  Sb  Sb5  1  0.07222338  0.92065290  0.94669337  1
  Sb  Sb6  1  0.21950267  0.75000412  0.57323690  1
  Sb  Sb7  1  0.51227993  0.48985676  0.64655447  1
  Sb  Sb8  1  0.80852134  0.23169226  0.72000150  1
  Sb  Sb9  1  0.02959216  0.97251335  0.79515403  1
  Sb  Sb10  1  0.20765346  0.75412934  0.42398817  1
  Sb  Sb11  1  0.49956888  0.49735768  0.49729340  1
  Sb  Sb12  1  0.79228527  0.24107925  0.57058372  1
  Sb  Sb13  1  0.01267338  0.98996562  0.64654689  1
  Sb  Sb14  1  0.18928129  0.75172373  0.27533191  1
  Sb  Sb15  1  0.48694062  0.49972428  0.34816921  1
  Sb  Sb16  1  0.77990512  0.24496114  0.42129752  1
  Sb  Sb17  1  0.00004664  0.99733746  0.49729710  1
  Sb  Sb18  1  0.45338519  0.51327059  0.19900716  1
  Sb  Sb19  1  0.75750146  0.25224334  0.27201127  1
  Sb  Sb20  1  0.98669632  0.99974399  0.34803691  1
  Sb  Sb21  1  0.59920496  0.63085994  0.08486159  1
  Sb  Sb22  1  0.74183507  0.24925992  0.13985355  1
  Sb  Sb23  1  0.98397521  0.99335057  0.20045702  1
  Sb  Sb24  1  0.80649542  0.45852221  0.01434189  1
  Sb  Sb25  1  0.95112529  0.02750134  0.06027075  1
  O  O26  1  0.09748861  0.93499136  0.89994854  1
  O  O27  1  0.41605020  0.32433191  0.96735722  1
  O  O28  1  0.21853559  0.43093697  0.89955357  1
  O  O29  1  0.02216001  0.94313436  0.74854661  1
  O  O30  1  0.29425941  0.28969316  0.81306750  1
  O  O31  1  0.20577306  0.44601156  0.74901739  1
  O  O32  1  0.73023243  0.10786194  0.92434713  1
  O  O33  1  0.39041944  0.79135543  0.81298490  1
  O  O34  1  0.90451848  0.59394523  0.98091892  1
  O  O35  1  0.74456942  0.62512963  0.91732060  1
  O  O36  1  0.01138165  0.95781136  0.59995762  1
  O  O37  1  0.96869348  0.13594250  0.99867678  1
  O  O38  1  0.29105247  0.30078711  0.66483345  1
  O  O39  1  0.18632355  0.46001315  0.60008427  1
  O  O40  1  0.66998221  0.15515016  0.77796476  1
  O  O41  1  0.36477344  0.80126449  0.66473677  1
  O  O42  1  0.84802569  0.49946240  0.84294789  1
  O  O43  1  0.76317919  0.65622942  0.77822820  1
  O  O44  1  0.99968964  0.96302345  0.45071158  1
  O  O45  1  0.04621628  0.00361615  0.84238286  1
  O  O46  1  0.27970546  0.30727781  0.51556675  1
  O  O47  1  0.17379858  0.46496192  0.45080207  1
  O  O48  1  0.66028725  0.17808124  0.62867093  1
  O  O49  1  0.35098152  0.80831934  0.51545935  1
  O  O50  1  0.84026595  0.51928173  0.69309882  1
  O  O51  1  0.73493045  0.67942632  0.62855353  1
  O  O52  1  0.98257322  0.96334885  0.30148647  1
  O  O53  1  0.01448931  0.02096852  0.69323976  1
  O  O54  1  0.26791314  0.30880230  0.36635372  1
  O  O55  1  0.15930449  0.46718264  0.30169694  1
  O  O56  1  0.64929438  0.18652027  0.47940352  1
  O  O57  1  0.33714679  0.81001892  0.36627134  1
  O  O58  1  0.82634718  0.52958902  0.54395735  1
  O  O59  1  0.72109150  0.68765636  0.47929965  1
  O  O60  1  0.97529534  0.97297726  0.15568635  1
  O  O61  1  0.00108952  0.03167444  0.54408867  1
  O  O62  1  0.26865886  0.30714174  0.21929573  1
  O  O63  1  0.11052135  0.45977877  0.15445481  1
  O  O64  1  0.63654606  0.18951949  0.33034348  1
  O  O65  1  0.33559809  0.81908501  0.22037213  1
  O  O66  1  0.81476185  0.53327923  0.39470768  1
  O  O67  1  0.70577801  0.69036557  0.32991631  1
  O  O68  1  0.15046401  0.05010796  0.02867873  1
  O  O69  1  0.98810806  0.03481595  0.39478909  1
  O  O70  1  0.17255496  0.61462060  0.05480353  1
  O  O71  1  0.62880898  0.21371655  0.17840002  1
  O  O72  1  0.79646356  0.52855205  0.24505895  1
  O  O73  1  0.70821412  0.69087171  0.18471133  1
  O  O74  1  0.96725543  0.04338108  0.24574190  1
  O  O75  1  0.67401951  0.27344918  0.03928780  1
  O  O76  1  0.48495813  0.47470854  0.11639400  1
  O  O77  1  0.63114783  0.75299363  0.02775086  1
  O  O78  1  0.53542787  0.00038583  0.09786546  1
