# generated using pymatgen
data_Ti(SnN)4
_symmetry_space_group_name_H-M   'P 1'
_cell_length_a   6.52779236
_cell_length_b   7.79726440
_cell_length_c   9.16513633
_cell_angle_alpha   64.88230004
_cell_angle_beta   75.50240091
_cell_angle_gamma   53.32282567
_symmetry_Int_Tables_number   1
_chemical_formula_structural   Ti(SnN)4
_chemical_formula_sum   'Ti2 Sn8 N8'
_cell_volume   338.75338255
_cell_formula_units_Z   2
loop_
 _symmetry_equiv_pos_site_id
 _symmetry_equiv_pos_as_xyz
  1  'x, y, z'
loop_
 _atom_site_type_symbol
 _atom_site_label
 _atom_site_symmetry_multiplicity
 _atom_site_fract_x
 _atom_site_fract_y
 _atom_site_fract_z
 _atom_site_occupancy
  Ti  Ti0  1  0.74926132  0.80066855  0.75033124  1
  Ti  Ti1  1  0.25073868  0.19933145  0.24966876  1
  Sn  Sn2  1  0.74992396  0.62594634  0.13268477  1
  Sn  Sn3  1  0.25007604  0.37405366  0.86731523  1
  Sn  Sn4  1  0.78129970  0.28491193  0.95810341  1
  Sn  Sn5  1  0.21870030  0.71508807  0.04189659  1
  Sn  Sn6  1  0.71896155  0.52465021  0.54142587  1
  Sn  Sn7  1  0.28103845  0.47534979  0.45857413  1
  Sn  Sn8  1  0.24962840  0.99061909  0.63200708  1
  Sn  Sn9  1  0.75037160  0.00938091  0.36799292  1
  N  N10  1  0.97536782  0.57388865  0.64630301  1
  N  N11  1  0.02463218  0.42611135  0.35369699  1
  N  N12  1  0.97634975  0.71469935  0.90693324  1
  N  N13  1  0.02365025  0.28530065  0.09306676  1
  N  N14  1  0.52387458  0.69537786  0.85375688  1
  N  N15  1  0.47612542  0.30462214  0.14624312  1
  N  N16  1  0.47824957  0.90189720  0.40594213  1
  N  N17  1  0.52175043  0.09810280  0.59405787  1
