# generated using pymatgen
data_Mg3Ga3N5
_symmetry_space_group_name_H-M   'P 1'
_cell_length_a   5.67364052
_cell_length_b   6.73430558
_cell_length_c   8.26642296
_cell_angle_alpha   108.52779458
_cell_angle_beta   104.50621461
_cell_angle_gamma   94.83784524
_symmetry_Int_Tables_number   1
_chemical_formula_structural   Mg3Ga3N5
_chemical_formula_sum   'Mg6 Ga6 N10'
_cell_volume   285.26560974
_cell_formula_units_Z   2
loop_
 _symmetry_equiv_pos_site_id
 _symmetry_equiv_pos_as_xyz
  1  'x, y, z'
loop_
 _atom_site_type_symbol
 _atom_site_label
 _atom_site_symmetry_multiplicity
 _atom_site_fract_x
 _atom_site_fract_y
 _atom_site_fract_z
 _atom_site_occupancy
  Mg  Mg0  1  0.85435481  0.42232402  0.61116365  1
  Mg  Mg1  1  0.14564519  0.57767598  0.38883635  1
  Mg  Mg2  1  0.72094869  0.88520428  0.94896593  1
  Mg  Mg3  1  0.27905131  0.11479572  0.05103407  1
  Mg  Mg4  1  0.58783025  0.51503557  0.24689849  1
  Mg  Mg5  1  0.41216975  0.48496443  0.75310151  1
  Ga  Ga6  1  0.86963735  0.31175636  0.96846097  1
  Ga  Ga7  1  0.13036265  0.68824364  0.03153903  1
  Ga  Ga8  1  0.69304230  0.92232266  0.57811320  1
  Ga  Ga9  1  0.30695770  0.07767734  0.42188680  1
  Ga  Ga10  1  0.14194671  0.85477422  0.70294814  1
  Ga  Ga11  1  0.85805329  0.14522578  0.29705186  1
  N  N12  1  0.93047610  0.03829492  0.82125917  1
  N  N13  1  0.06952390  0.96170508  0.17874083  1
  N  N14  1  0.83527401  0.66384738  0.49451842  1
  N  N15  1  0.16472599  0.33615262  0.50548158  1
  N  N16  1  0.78885941  0.52818830  0.86067011  1
  N  N17  1  0.21114059  0.47181170  0.13932989  1
  N  N18  1  0.34347440  0.88401558  0.55684450  1
  N  N19  1  0.65652560  0.11598442  0.44315550  1
  N  N20  1  0.33330442  0.77089141  0.89558408  1
  N  N21  1  0.66669558  0.22910859  0.10441592  1
