# generated using pymatgen
data_Ca3Y2N4
_symmetry_space_group_name_H-M   'P 1'
_cell_length_a   6.13791715
_cell_length_b   12.33650028
_cell_length_c   9.30648088
_cell_angle_alpha   90.00000000
_cell_angle_beta   90.00000000
_cell_angle_gamma   90.00000000
_symmetry_Int_Tables_number   1
_chemical_formula_structural   Ca3Y2N4
_chemical_formula_sum   'Ca12 Y8 N16'
_cell_volume   704.69060968
_cell_formula_units_Z   4
loop_
 _symmetry_equiv_pos_site_id
 _symmetry_equiv_pos_as_xyz
  1  'x, y, z'
loop_
 _atom_site_type_symbol
 _atom_site_label
 _atom_site_symmetry_multiplicity
 _atom_site_fract_x
 _atom_site_fract_y
 _atom_site_fract_z
 _atom_site_occupancy
  Ca  Ca0  1  0.66783657  0.18069502  0.39097484  1
  Ca  Ca1  1  0.83216343  0.81930498  0.39097484  1
  Ca  Ca2  1  0.66783657  0.31930498  0.10902516  1
  Ca  Ca3  1  0.83216343  0.68069502  0.10902516  1
  Ca  Ca4  1  0.33216343  0.81930498  0.60902516  1
  Ca  Ca5  1  0.16783657  0.18069502  0.60902516  1
  Ca  Ca6  1  0.33216343  0.68069502  0.89097484  1
  Ca  Ca7  1  0.16783657  0.31930498  0.89097484  1
  Ca  Ca8  1  0.75000000  0.50000000  0.43202486  1
  Ca  Ca9  1  0.75000000  0.00000000  0.06797514  1
  Ca  Ca10  1  0.25000000  0.50000000  0.56797514  1
  Ca  Ca11  1  0.25000000  -0.00000000  0.93202486  1
  Y  Y12  1  0.75000000  0.50000000  0.81401859  1
  Y  Y13  1  0.75000000  0.00000000  0.68598141  1
  Y  Y14  1  0.25000000  0.50000000  0.18598141  1
  Y  Y15  1  0.25000000  -0.00000000  0.31401859  1
  Y  Y16  1  0.71035290  0.25000000  0.75000000  1
  Y  Y17  1  0.78964710  0.75000000  0.75000000  1
  Y  Y18  1  0.28964710  0.75000000  0.25000000  1
  Y  Y19  1  0.21035290  0.25000000  0.25000000  1
  N  N20  1  0.95653503  0.38521242  0.66849242  1
  N  N21  1  0.54346497  0.61478758  0.66849242  1
  N  N22  1  0.95653503  0.11478758  0.83150758  1
  N  N23  1  0.54346497  0.88521242  0.83150758  1
  N  N24  1  0.04346497  0.61478758  0.33150758  1
  N  N25  1  0.45653503  0.38521242  0.33150758  1
  N  N26  1  0.04346497  0.88521242  0.16849242  1
  N  N27  1  0.45653503  0.11478758  0.16849242  1
  N  N28  1  0.52707655  0.36250361  0.89120110  1
  N  N29  1  0.97292345  0.63749639  0.89120110  1
  N  N30  1  0.52707655  0.13749639  0.60879890  1
  N  N31  1  0.97292345  0.86250361  0.60879890  1
  N  N32  1  0.47292345  0.63749639  0.10879890  1
  N  N33  1  0.02707655  0.36250361  0.10879890  1
  N  N34  1  0.47292345  0.86250361  0.39120110  1
  N  N35  1  0.02707655  0.13749639  0.39120110  1
