# generated using pymatgen
data_Al(C2N3)3
_symmetry_space_group_name_H-M   'P 1'
_cell_length_a   7.58312201
_cell_length_b   13.48785969
_cell_length_c   11.62301608
_cell_angle_alpha   90.00000000
_cell_angle_beta   90.00000000
_cell_angle_gamma   27.21030268
_symmetry_Int_Tables_number   1
_chemical_formula_structural   Al(C2N3)3
_chemical_formula_sum   'Al2 C12 N18'
_cell_volume   543.58954138
_cell_formula_units_Z   2
loop_
 _symmetry_equiv_pos_site_id
 _symmetry_equiv_pos_as_xyz
  1  'x, y, z'
loop_
 _atom_site_type_symbol
 _atom_site_label
 _atom_site_symmetry_multiplicity
 _atom_site_fract_x
 _atom_site_fract_y
 _atom_site_fract_z
 _atom_site_occupancy
  Al  Al0  1  0.00000000  0.27752749  0.25000000  1
  Al  Al1  1  1.00000000  0.72247251  0.75000000  1
  C  C2  1  0.67616874  0.78517781  0.25000000  1
  C  C3  1  0.67616874  0.53865344  0.75000000  1
  C  C4  1  0.32383126  0.21482219  0.75000000  1
  C  C5  1  0.32383126  0.46134656  0.25000000  1
  C  C6  1  0.67611700  0.30794634  0.90525783  1
  C  C7  1  0.67611700  0.01593667  0.09474217  1
  C  C8  1  0.67611700  0.30794634  0.59474217  1
  C  C9  1  0.67611700  0.01593667  0.40525783  1
  C  C10  1  0.32388300  0.69205366  0.09474217  1
  C  C11  1  0.32388300  0.98406333  0.90525783  1
  C  C12  1  0.32388300  0.69205366  0.40525783  1
  C  C13  1  0.32388300  0.98406333  0.59474217  1
  N  N14  1  0.00000000  0.57578004  0.25000000  1
  N  N15  1  1.00000000  0.42421996  0.75000000  1
  N  N16  1  0.37508285  0.97589771  0.25000000  1
  N  N17  1  0.37508285  0.64901844  0.75000000  1
  N  N18  1  0.62491715  0.02410229  0.75000000  1
  N  N19  1  0.62491715  0.35098156  0.25000000  1
  N  N20  1  0.00000000  0.12284931  0.95306201  1
  N  N21  1  1.00000000  0.87715069  0.04693799  1
  N  N22  1  0.00000000  0.12284931  0.54693799  1
  N  N23  1  1.00000000  0.87715069  0.45306201  1
  N  N24  1  0.37471711  0.47840161  0.86480897  1
  N  N25  1  0.37471711  0.14688128  0.13519103  1
  N  N26  1  0.37471711  0.47840161  0.63519103  1
  N  N27  1  0.37471711  0.14688128  0.36480897  1
  N  N28  1  0.62528289  0.52159839  0.13519103  1
  N  N29  1  0.62528289  0.85311872  0.86480897  1
  N  N30  1  0.62528289  0.52159839  0.36480897  1
  N  N31  1  0.62528289  0.85311872  0.63519103  1
