# generated using pymatgen
data_Sr3Bi3N5
_symmetry_space_group_name_H-M   'P 1'
_cell_length_a   6.41207592
_cell_length_b   7.06214516
_cell_length_c   10.96060145
_cell_angle_alpha   103.20245009
_cell_angle_beta   93.72419183
_cell_angle_gamma   91.86957877
_symmetry_Int_Tables_number   1
_chemical_formula_structural   Sr3Bi3N5
_chemical_formula_sum   'Sr6 Bi6 N10'
_cell_volume   481.61452729
_cell_formula_units_Z   2
loop_
 _symmetry_equiv_pos_site_id
 _symmetry_equiv_pos_as_xyz
  1  'x, y, z'
loop_
 _atom_site_type_symbol
 _atom_site_label
 _atom_site_symmetry_multiplicity
 _atom_site_fract_x
 _atom_site_fract_y
 _atom_site_fract_z
 _atom_site_occupancy
  Sr  Sr0  1  0.77071992  0.38932368  0.55237205  1
  Sr  Sr1  1  0.22928008  0.61067632  0.44762795  1
  Sr  Sr2  1  0.65852512  0.79908035  0.88628587  1
  Sr  Sr3  1  0.34147488  0.20091965  0.11371413  1
  Sr  Sr4  1  0.68345236  0.78864537  0.27161415  1
  Sr  Sr5  1  0.31654764  0.21135463  0.72838585  1
  Bi  Bi6  1  0.87845789  0.28837260  0.90026162  1
  Bi  Bi7  1  0.12154211  0.71162740  0.09973838  1
  Bi  Bi8  1  0.72853968  0.93168857  0.59801697  1
  Bi  Bi9  1  0.27146032  0.06831143  0.40198303  1
  Bi  Bi10  1  0.16553808  0.74111238  0.77502622  1
  Bi  Bi11  1  0.83446192  0.25888762  0.22497378  1
  N  N12  1  0.94840942  0.98431175  0.77063080  1
  N  N13  1  0.05159058  0.01568825  0.22936920  1
  N  N14  1  0.83250239  0.68566987  0.46855726  1
  N  N15  1  0.16749761  0.31433013  0.53144274  1
  N  N16  1  0.66583496  0.41063441  0.78589198  1
  N  N17  1  0.33416504  0.58936559  0.21410802  1
  N  N18  1  0.42557959  0.85020888  0.68204478  1
  N  N19  1  0.57442041  0.14979112  0.31795522  1
  N  N20  1  0.30185555  0.84007766  0.97028485  1
  N  N21  1  0.69814445  0.15992234  0.02971515  1
