# generated using pymatgen
data_Al2O3
_symmetry_space_group_name_H-M   'P 1'
_cell_length_a   10.37837621
_cell_length_b   10.48744878
_cell_length_c   10.62521588
_cell_angle_alpha   97.18970577
_cell_angle_beta   96.39883977
_cell_angle_gamma   88.45059888
_symmetry_Int_Tables_number   1
_chemical_formula_structural   Al2O3
_chemical_formula_sum   'Al40 O60'
_cell_volume   1140.13542088
_cell_formula_units_Z   20
loop_
 _symmetry_equiv_pos_site_id
 _symmetry_equiv_pos_as_xyz
  1  'x, y, z'
loop_
 _atom_site_type_symbol
 _atom_site_label
 _atom_site_symmetry_multiplicity
 _atom_site_fract_x
 _atom_site_fract_y
 _atom_site_fract_z
 _atom_site_occupancy
  Al  Al0  1  0.67577584  0.39038535  0.68185416  1
  Al  Al1  1  0.73140640  0.69723439  0.66403446  1
  Al  Al2  1  0.20911451  0.66580733  0.66217411  1
  Al  Al3  1  0.61971122  0.46207654  0.96387863  1
  Al  Al4  1  0.82085680  0.74141656  0.38820775  1
  Al  Al5  1  0.23410607  0.42422571  0.47596327  1
  Al  Al6  1  0.43169234  0.43192500  0.25056702  1
  Al  Al7  1  0.88772110  0.16649177  0.14562929  1
  Al  Al8  1  0.39340669  0.63662703  0.05249813  1
  Al  Al9  1  0.91314104  0.08934949  0.83381817  1
  Al  Al10  1  0.49945765  0.56451819  0.47681878  1
  Al  Al11  1  0.38403827  0.90023732  0.81809947  1
  Al  Al12  1  0.56574392  0.19919720  0.22310185  1
  Al  Al13  1  0.95260219  0.84391934  0.67668120  1
  Al  Al14  1  0.66433186  0.86325189  0.88056339  1
  Al  Al15  1  0.13071468  0.81879931  0.90539133  1
  Al  Al16  1  0.16545904  0.18517486  0.45478816  1
  Al  Al17  1  0.08457403  0.35980977  0.78430155  1
  Al  Al18  1  0.19949332  0.92720273  0.55251924  1
  Al  Al19  1  0.50353129  0.87359075  0.56234044  1
  Al  Al20  1  0.61963357  0.09351030  0.70306003  1
  Al  Al21  1  0.11219555  0.67533361  0.10281101  1
  Al  Al22  1  0.88394156  0.43049873  0.54756806  1
  Al  Al23  1  0.97794724  0.98906938  0.39346606  1
  Al  Al24  1  0.29423732  0.89155343  0.29744220  1
  Al  Al25  1  0.86628566  0.15421059  0.56385740  1
  Al  Al26  1  0.90553052  0.92385775  0.07136927  1
  Al  Al27  1  0.74781392  0.44276316  0.25392712  1
  Al  Al28  1  0.60933175  0.16833831  0.98815348  1
  Al  Al29  1  0.48527734  0.61601904  0.75530167  1
  Al  Al30  1  0.65906320  0.98516102  0.39303175  1
  Al  Al31  1  0.48069084  0.93350747  0.11510283  1
  Al  Al32  1  0.59749599  0.68847010  0.23240540  1
  Al  Al33  1  0.38819515  0.36235306  0.69148854  1
  Al  Al34  1  0.32276648  0.13551351  0.10901590  1
  Al  Al35  1  0.17282703  0.07461389  0.83430545  1
  Al  Al36  1  0.34585203  0.34861788  0.96195468  1
  Al  Al37  1  0.03127504  0.41653662  0.28914759  1
  Al  Al38  1  0.92754253  0.43798687  0.03959528  1
  Al  Al39  1  0.10582601  0.69938846  0.37436397  1
  O  O40  1  0.16950175  0.00741445  0.39878481  1
  O  O41  1  0.37047785  0.46124365  0.40329534  1
  O  O42  1  0.03395645  0.41531566  0.63593826  1
  O  O43  1  0.79982336  0.84350889  0.75937466  1
  O  O44  1  0.77855367  0.30044870  0.56837458  1
  O  O45  1  0.80251950  0.10446992  0.69812680  1
  O  O46  1  0.88299921  0.41288987  0.37114308  1
  O  O47  1  0.00943224  0.16456281  0.49117213  1
  O  O48  1  0.39465860  0.26052142  0.21771284  1
  O  O49  1  0.11101816  0.53840372  0.40366472  1
  O  O50  1  0.26467283  0.34816174  0.80525416  1
  O  O51  1  0.02173149  0.93976346  0.56624129  1
  O  O52  1  0.59672101  0.00705223  0.53965053  1
  O  O53  1  0.02201700  0.44246695  0.91739228  1
  O  O54  1  0.28214552  0.51547631  0.62974137  1
  O  O55  1  0.66791517  0.06737930  0.86927868  1
  O  O56  1  0.36330877  0.88520741  0.45832671  1
  O  O57  1  0.25210850  0.19796506  0.97303884  1
  O  O58  1  0.72314507  0.41526077  0.84575872  1
  O  O59  1  0.18652068  0.75337377  0.52769157  1
  O  O60  1  0.56270826  0.04152247  0.26872339  1
  O  O61  1  0.04253604  0.19100069  0.79377340  1
  O  O62  1  0.02700162  0.80705802  0.03121787  1
  O  O63  1  0.02826228  0.95700787  0.81932934  1
  O  O64  1  0.54449231  0.25485676  0.69423371  1
  O  O65  1  0.67351901  0.82313826  0.33829589  1
  O  O66  1  0.56914308  0.71421870  0.55474850  1
  O  O67  1  0.76900451  0.53096852  0.62730673  1
  O  O68  1  0.19517342  0.74938655  0.25388357  1
  O  O69  1  0.31394875  0.99367122  0.17944081  1
  O  O70  1  0.75082800  0.86931830  0.03443174  1
  O  O71  1  0.50781724  0.59062906  0.31491853  1
  O  O72  1  0.60542170  0.36416606  0.28448438  1
  O  O73  1  0.08127338  0.73024134  0.74913271  1
  O  O74  1  0.85279663  0.73619522  0.55215589  1
  O  O75  1  0.97106129  0.31109943  0.14715533  1
  O  O76  1  0.96456127  0.80141393  0.34166214  1
  O  O77  1  0.52460531  0.48474897  0.62461553  1
  O  O78  1  0.34648403  0.47793339  0.09745920  1
  O  O79  1  0.75349019  0.61015271  0.28693482  1
  O  O80  1  0.50116770  0.86638366  0.95202920  1
  O  O81  1  0.76455386  0.43883101  0.08614600  1
  O  O82  1  0.56643714  0.60382220  0.06966371  1
  O  O83  1  0.91333090  0.07717863  0.99814135  1
  O  O84  1  0.26504376  0.00420922  0.70479839  1
  O  O85  1  0.23286078  0.68697714  0.99235510  1
  O  O86  1  0.44531355  0.78541524  0.18020838  1
  O  O87  1  0.81378743  0.03962835  0.42926578  1
  O  O88  1  0.52229619  0.31593266  0.98318972  1
  O  O89  1  0.71518833  0.18630460  0.13711298  1
  O  O90  1  0.25345788  0.94089748  0.92059019  1
  O  O91  1  0.35586159  0.73538930  0.74652970  1
  O  O92  1  0.45784860  0.50051047  0.85647725  1
  O  O93  1  0.51197624  0.93746697  0.72520963  1
  O  O94  1  0.28927482  0.27425499  0.55337625  1
  O  O95  1  0.02362558  0.55299037  0.16096219  1
  O  O96  1  0.48535042  0.09526596  0.05903833  1
  O  O97  1  0.63144347  0.69766029  0.79884197  1
  O  O98  1  0.14858315  0.30481903  0.35078823  1
  O  O99  1  0.94388450  0.02815116  0.22346370  1
