# generated using pymatgen
data_GePbN2
_symmetry_space_group_name_H-M   'P 1'
_cell_length_a   5.50713764
_cell_length_b   10.97832458
_cell_length_c   15.99254525
_cell_angle_alpha   90.00000000
_cell_angle_beta   90.00000000
_cell_angle_gamma   90.00000000
_symmetry_Int_Tables_number   1
_chemical_formula_structural   GePbN2
_chemical_formula_sum   'Ge16 Pb16 N32'
_cell_volume   966.89560449
_cell_formula_units_Z   16
loop_
 _symmetry_equiv_pos_site_id
 _symmetry_equiv_pos_as_xyz
  1  'x, y, z'
loop_
 _atom_site_type_symbol
 _atom_site_label
 _atom_site_symmetry_multiplicity
 _atom_site_fract_x
 _atom_site_fract_y
 _atom_site_fract_z
 _atom_site_occupancy
  Ge  Ge0  1  0.76524040  0.99953009  0.18858840  1
  Ge  Ge1  1  0.26524040  0.50046991  0.81141160  1
  Ge  Ge2  1  0.23475960  0.49953009  0.31141160  1
  Ge  Ge3  1  0.73475960  0.00046991  0.68858840  1
  Ge  Ge4  1  0.23475960  0.00046991  0.81141160  1
  Ge  Ge5  1  0.73475960  0.49953009  0.18858840  1
  Ge  Ge6  1  0.76524040  0.50046991  0.68858840  1
  Ge  Ge7  1  0.26524040  0.99953009  0.31141160  1
  Ge  Ge8  1  0.76414188  0.26150450  0.06250527  1
  Ge  Ge9  1  0.26414188  0.23849550  0.93749473  1
  Ge  Ge10  1  0.23585812  0.76150450  0.43749473  1
  Ge  Ge11  1  0.73585812  0.73849550  0.56250527  1
  Ge  Ge12  1  0.23585812  0.73849550  0.93749473  1
  Ge  Ge13  1  0.73585812  0.76150450  0.06250527  1
  Ge  Ge14  1  0.76414188  0.23849550  0.56250527  1
  Ge  Ge15  1  0.26414188  0.26150450  0.43749473  1
  Pb  Pb16  1  0.75881831  0.99618685  0.43514352  1
  Pb  Pb17  1  0.25881831  0.50381315  0.56485648  1
  Pb  Pb18  1  0.24118169  0.49618685  0.06485648  1
  Pb  Pb19  1  0.74118169  0.00381315  0.93514352  1
  Pb  Pb20  1  0.24118169  0.00381315  0.56485648  1
  Pb  Pb21  1  0.74118169  0.49618685  0.43514352  1
  Pb  Pb22  1  0.75881831  0.50381315  0.93514352  1
  Pb  Pb23  1  0.25881831  0.99618685  0.06485648  1
  Pb  Pb24  1  0.73151101  0.24972171  0.31532204  1
  Pb  Pb25  1  0.23151101  0.25027829  0.68467796  1
  Pb  Pb26  1  0.26848899  0.74972171  0.18467796  1
  Pb  Pb27  1  0.76848899  0.75027829  0.81532204  1
  Pb  Pb28  1  0.26848899  0.75027829  0.68467796  1
  Pb  Pb29  1  0.76848899  0.74972171  0.31532204  1
  Pb  Pb30  1  0.73151101  0.25027829  0.81532204  1
  Pb  Pb31  1  0.23151101  0.24972171  0.18467796  1
  N  N32  1  0.55955069  0.45594330  0.28636339  1
  N  N33  1  0.05955069  0.04405670  0.71363661  1
  N  N34  1  0.44044931  0.95594330  0.21363661  1
  N  N35  1  0.94044931  0.54405670  0.78636339  1
  N  N36  1  0.44044931  0.54405670  0.71363661  1
  N  N37  1  0.94044931  0.95594330  0.28636339  1
  N  N38  1  0.55955069  0.04405670  0.78636339  1
  N  N39  1  0.05955069  0.45594330  0.21363661  1
  N  N40  1  0.58674110  0.30063941  0.47286666  1
  N  N41  1  0.08674110  0.19936059  0.52713334  1
  N  N42  1  0.41325890  0.80063941  0.02713334  1
  N  N43  1  0.91325890  0.69936059  0.97286666  1
  N  N44  1  0.41325890  0.69936059  0.52713334  1
  N  N45  1  0.91325890  0.80063941  0.47286666  1
  N  N46  1  0.58674110  0.19936059  0.97286666  1
  N  N47  1  0.08674110  0.30063941  0.02713334  1
  N  N48  1  0.63022520  0.41049257  0.09560624  1
  N  N49  1  0.13022520  0.08950743  0.90439376  1
  N  N50  1  0.36977480  0.91049257  0.40439376  1
  N  N51  1  0.86977480  0.58950743  0.59560624  1
  N  N52  1  0.36977480  0.58950743  0.90439376  1
  N  N53  1  0.86977480  0.91049257  0.09560624  1
  N  N54  1  0.63022520  0.08950743  0.59560624  1
  N  N55  1  0.13022520  0.41049257  0.40439376  1
  N  N56  1  0.81554566  0.16552649  0.16061554  1
  N  N57  1  0.31554566  0.33447351  0.83938446  1
  N  N58  1  0.18445434  0.66552649  0.33938446  1
  N  N59  1  0.68445434  0.83447351  0.66061554  1
  N  N60  1  0.18445434  0.83447351  0.83938446  1
  N  N61  1  0.68445434  0.66552649  0.16061554  1
  N  N62  1  0.81554566  0.33447351  0.66061554  1
  N  N63  1  0.31554566  0.16552649  0.33938446  1
