# generated using pymatgen
data_Co3(P2O7)2
_symmetry_space_group_name_H-M   'P 1'
_cell_length_a   7.02953709
_cell_length_b   9.24868928
_cell_length_c   9.34918643
_cell_angle_alpha   75.39470996
_cell_angle_beta   95.22319348
_cell_angle_gamma   74.92672826
_symmetry_Int_Tables_number   1
_chemical_formula_structural   Co3(P2O7)2
_chemical_formula_sum   'Co6 P8 O28'
_cell_volume   559.91522902
_cell_formula_units_Z   2
loop_
 _symmetry_equiv_pos_site_id
 _symmetry_equiv_pos_as_xyz
  1  'x, y, z'
loop_
 _atom_site_type_symbol
 _atom_site_label
 _atom_site_symmetry_multiplicity
 _atom_site_fract_x
 _atom_site_fract_y
 _atom_site_fract_z
 _atom_site_occupancy
  Co  Co0  1  0.00138200  0.49900400  0.50216700  1
  Co  Co1  1  0.47987400  0.34496500  0.98636500  1
  Co  Co2  1  0.51600800  0.66759000  0.00979000  1
  Co  Co3  1  0.00031800  0.99837700  0.99913500  1
  Co  Co4  1  0.47363900  0.84325700  0.48066800  1
  Co  Co5  1  0.52778100  0.15642900  0.51939000  1
  P  P6  1  0.69257400  0.87743400  0.80158400  1
  P  P7  1  0.68852600  0.38337500  0.30107700  1
  P  P8  1  0.31311200  0.61997500  0.69987400  1
  P  P9  1  0.30704900  0.11930200  0.19691400  1
  P  P10  1  0.69548400  0.36295800  0.71629700  1
  P  P11  1  0.68630800  0.86382100  0.20895400  1
  P  P12  1  0.31108200  0.13586000  0.78814200  1
  P  P13  1  0.30629000  0.63662500  0.28661800  1
  O  O14  1  0.85815400  0.43270800  0.66839900  1
  O  O15  1  0.85320400  0.92921800  0.16276400  1
  O  O16  1  0.14514100  0.06966000  0.83531600  1
  O  O17  1  0.14282800  0.56747200  0.33591800  1
  O  O18  1  0.70690100  0.31133200  0.89008100  1
  O  O19  1  0.70035200  0.80813600  0.38233100  1
  O  O20  1  0.29929900  0.18824000  0.61426100  1
  O  O21  1  0.29040800  0.68654700  0.11311100  1
  O  O22  1  0.48604500  0.50229200  0.64897300  1
  O  O23  1  0.47943100  0.00253000  0.14244000  1
  O  O24  1  0.51653200  0.99236600  0.85495300  1
  O  O25  1  0.51636900  0.50080600  0.35508300  1
  O  O26  1  0.64122900  0.93092700  0.62526300  1
  O  O27  1  0.63910600  0.43113100  0.12726900  1
  O  O28  1  0.36350500  0.57289900  0.87682700  1
  O  O29  1  0.36081500  0.06727400  0.37235700  1
  O  O30  1  0.66583700  0.71234100  0.85620500  1
  O  O31  1  0.65822400  0.21966800  0.36308500  1
  O  O32  1  0.33956800  0.78387200  0.63847400  1
  O  O33  1  0.33915600  0.28192100  0.13883700  1
  O  O34  1  0.66902600  0.73042800  0.14328900  1
  O  O35  1  0.67887400  0.22781500  0.65593700  1
  O  O36  1  0.31884800  0.77317400  0.34719500  1
  O  O37  1  0.33180700  0.26963800  0.84957400  1
  O  O38  1  0.11602700  0.60598300  0.64001400  1
  O  O39  1  0.10943400  0.10902500  0.13404500  1
  O  O40  1  0.88852100  0.89100500  0.86423300  1
  O  O41  1  0.88593000  0.39261900  0.36678700  1
