# generated using pymatgen
data_Ba7GeN6
_symmetry_space_group_name_H-M   'P 1'
_cell_length_a   12.63546499
_cell_length_b   7.02251787
_cell_length_c   14.58923496
_cell_angle_alpha   90.00000000
_cell_angle_beta   90.00000000
_cell_angle_gamma   90.00000000
_symmetry_Int_Tables_number   1
_chemical_formula_structural   Ba7GeN6
_chemical_formula_sum   'Ba28 Ge4 N24'
_cell_volume   1294.54335693
_cell_formula_units_Z   4
loop_
 _symmetry_equiv_pos_site_id
 _symmetry_equiv_pos_as_xyz
  1  'x, y, z'
loop_
 _atom_site_type_symbol
 _atom_site_label
 _atom_site_symmetry_multiplicity
 _atom_site_fract_x
 _atom_site_fract_y
 _atom_site_fract_z
 _atom_site_occupancy
  Ba  Ba0  1  0.03654392  0.74222071  0.98262680  1
  Ba  Ba1  1  0.46345608  0.75777929  0.48262680  1
  Ba  Ba2  1  0.53654392  0.75777929  0.01737320  1
  Ba  Ba3  1  0.96345608  0.74222071  0.51737320  1
  Ba  Ba4  1  0.96345608  0.25777929  0.01737320  1
  Ba  Ba5  1  0.53654392  0.24222071  0.51737320  1
  Ba  Ba6  1  0.46345608  0.24222071  0.98262680  1
  Ba  Ba7  1  0.03654392  0.25777929  0.48262680  1
  Ba  Ba8  1  0.21853088  0.85541110  0.62630188  1
  Ba  Ba9  1  0.28146912  0.64458890  0.12630188  1
  Ba  Ba10  1  0.71853088  0.64458890  0.37369812  1
  Ba  Ba11  1  0.78146912  0.85541110  0.87369812  1
  Ba  Ba12  1  0.78146912  0.14458890  0.37369812  1
  Ba  Ba13  1  0.71853088  0.35541110  0.87369812  1
  Ba  Ba14  1  0.28146912  0.35541110  0.62630188  1
  Ba  Ba15  1  0.21853088  0.14458890  0.12630188  1
  Ba  Ba16  1  0.28861939  0.60051638  0.87197470  1
  Ba  Ba17  1  0.21138061  0.89948362  0.37197470  1
  Ba  Ba18  1  0.78861939  0.89948362  0.12802530  1
  Ba  Ba19  1  0.71138061  0.60051638  0.62802530  1
  Ba  Ba20  1  0.71138061  0.39948362  0.12802530  1
  Ba  Ba21  1  0.78861939  0.10051638  0.62802530  1
  Ba  Ba22  1  0.21138061  0.10051638  0.87197470  1
  Ba  Ba23  1  0.28861939  0.39948362  0.37197470  1
  Ba  Ba24  1  -0.00000000  0.43012715  0.75000000  1
  Ba  Ba25  1  0.50000000  0.06987285  0.25000000  1
  Ba  Ba26  1  -0.00000000  0.56987285  0.25000000  1
  Ba  Ba27  1  0.50000000  0.93012715  0.75000000  1
  Ge  Ge28  1  -0.00000000  0.91554699  0.75000000  1
  Ge  Ge29  1  0.50000000  0.58445301  0.25000000  1
  Ge  Ge30  1  -0.00000000  0.08445301  0.25000000  1
  Ge  Ge31  1  0.50000000  0.41554699  0.75000000  1
  N  N32  1  0.11871923  0.75314650  0.78943017  1
  N  N33  1  0.38128077  0.74685350  0.28943017  1
  N  N34  1  0.61871923  0.74685350  0.21056983  1
  N  N35  1  0.88128077  0.75314650  0.71056983  1
  N  N36  1  0.88128077  0.24685350  0.21056983  1
  N  N37  1  0.61871923  0.25314650  0.71056983  1
  N  N38  1  0.38128077  0.25314650  0.78943017  1
  N  N39  1  0.11871923  0.24685350  0.28943017  1
  N  N40  1  0.16401187  0.60533895  0.49880085  1
  N  N41  1  0.33598813  0.89466105  0.99880085  1
  N  N42  1  0.66401187  0.89466105  0.50119915  1
  N  N43  1  0.83598813  0.60533895  0.00119915  1
  N  N44  1  0.83598813  0.39466105  0.50119915  1
  N  N45  1  0.66401187  0.10533895  0.00119915  1
  N  N46  1  0.33598813  0.10533895  0.49880085  1
  N  N47  1  0.16401187  0.39466105  0.99880085  1
  N  N48  1  0.45984940  0.57345270  0.64614222  1
  N  N49  1  0.04015060  0.92654730  0.14614222  1
  N  N50  1  0.95984940  0.92654730  0.35385778  1
  N  N51  1  0.54015060  0.57345270  0.85385778  1
  N  N52  1  0.54015060  0.42654730  0.35385778  1
  N  N53  1  0.95984940  0.07345270  0.85385778  1
  N  N54  1  0.04015060  0.07345270  0.64614222  1
  N  N55  1  0.45984940  0.42654730  0.14614222  1
