# generated using pymatgen
data_InGa2N3
_symmetry_space_group_name_H-M   'P 1'
_cell_length_a   5.77714770
_cell_length_b   5.77304143
_cell_length_c   5.39030301
_cell_angle_alpha   90.00000000
_cell_angle_beta   90.00000000
_cell_angle_gamma   119.97649108
_symmetry_Int_Tables_number   1
_chemical_formula_structural   InGa2N3
_chemical_formula_sum   'In2 Ga4 N6'
_cell_volume   155.72731227
_cell_formula_units_Z   2
loop_
 _symmetry_equiv_pos_site_id
 _symmetry_equiv_pos_as_xyz
  1  'x, y, z'
loop_
 _atom_site_type_symbol
 _atom_site_label
 _atom_site_symmetry_multiplicity
 _atom_site_fract_x
 _atom_site_fract_y
 _atom_site_fract_z
 _atom_site_occupancy
  In  In0  1  -0.00000000  0.67473549  0.48969628  1
  In  In1  1  0.00000000  0.32526451  0.98969628  1
  Ga  Ga2  1  0.34094016  0.33385195  0.49257487  1
  Ga  Ga3  1  0.65905984  0.99291178  0.49257487  1
  Ga  Ga4  1  0.65905984  0.66614805  0.99257487  1
  Ga  Ga5  1  0.34094016  0.00708822  0.99257487  1
  N  N6  1  0.36050449  0.33367898  0.85888267  1
  N  N7  1  0.63949551  0.97317449  0.85888267  1
  N  N8  1  0.63949551  0.66632102  0.35888267  1
  N  N9  1  0.36050449  0.02682551  0.35888267  1
  N  N10  1  0.00000000  0.69255470  0.89538863  1
  N  N11  1  -0.00000000  0.30744530  0.39538863  1
