# generated using pymatgen
data_CoSi7N10
_symmetry_space_group_name_H-M   'P 1'
_cell_length_a   6.66472851
_cell_length_b   6.92164952
_cell_length_c   9.70535224
_cell_angle_alpha   90.00000000
_cell_angle_beta   104.32505161
_cell_angle_gamma   90.00000000
_symmetry_Int_Tables_number   1
_chemical_formula_structural   CoSi7N10
_chemical_formula_sum   'Co2 Si14 N20'
_cell_volume   433.79620844
_cell_formula_units_Z   2
loop_
 _symmetry_equiv_pos_site_id
 _symmetry_equiv_pos_as_xyz
  1  'x, y, z'
loop_
 _atom_site_type_symbol
 _atom_site_label
 _atom_site_symmetry_multiplicity
 _atom_site_fract_x
 _atom_site_fract_y
 _atom_site_fract_z
 _atom_site_occupancy
  Co  Co0  1  0.01130085  0.89834462  0.70761333  1
  Co  Co1  1  0.01130085  0.10165538  0.20761333  1
  Si  Si2  1  0.54048732  0.98226893  0.82037875  1
  Si  Si3  1  0.54048732  0.01773107  0.32037875  1
  Si  Si4  1  0.34605406  0.02087129  0.01840743  1
  Si  Si5  1  0.34605406  0.97912871  0.51840743  1
  Si  Si6  1  0.10980509  0.40259365  0.07486945  1
  Si  Si7  1  0.10980509  0.59740635  0.57486945  1
  Si  Si8  1  0.65823952  0.36121409  0.98895412  1
  Si  Si9  1  0.65823952  0.63878591  0.48895412  1
  Si  Si10  1  0.84433719  0.61775916  0.80843783  1
  Si  Si11  1  0.84433719  0.38224084  0.30843783  1
  Si  Si12  1  0.29715207  0.61847238  0.88107368  1
  Si  Si13  1  0.29715207  0.38152762  0.38107368  1
  Si  Si14  1  0.48615195  0.36663249  0.68450022  1
  Si  Si15  1  0.48615195  0.63336751  0.18450022  1
  N  N16  1  0.74944533  0.84777334  0.80989394  1
  N  N17  1  0.74944533  0.15222666  0.30989394  1
  N  N18  1  0.54687949  0.13724518  0.96442477  1
  N  N19  1  0.54687949  0.86275482  0.46442477  1
  N  N20  1  0.30858476  0.86995196  0.86240653  1
  N  N21  1  0.30858476  0.13004804  0.36240653  1
  N  N22  1  0.15297468  0.15994704  0.04994126  1
  N  N23  1  0.15297468  0.84005296  0.54994126  1
  N  N24  1  0.28995927  0.50506536  0.72229149  1
  N  N25  1  0.28995927  0.49493464  0.22229149  1
  N  N26  1  0.44649511  0.12044804  0.66764664  1
  N  N27  1  0.44649511  0.87955196  0.16764664  1
  N  N28  1  0.87951406  0.38249988  0.13040180  1
  N  N29  1  0.87951406  0.61750012  0.63040180  1
  N  N30  1  0.07529806  0.56805046  0.93523792  1
  N  N31  1  0.07529806  0.43194954  0.43523792  1
  N  N32  1  0.70026447  0.41418794  0.82292090  1
  N  N33  1  0.70026447  0.58581206  0.32292090  1
  N  N34  1  0.49935771  0.54385552  0.01989894  1
  N  N35  1  0.49935771  0.45614448  0.51989894  1
