# generated using pymatgen
data_GaBiN2
_symmetry_space_group_name_H-M   'P 1'
_cell_length_a   5.73737923
_cell_length_b   10.74593232
_cell_length_c   15.79636530
_cell_angle_alpha   90.00000000
_cell_angle_beta   90.00000000
_cell_angle_gamma   90.00000000
_symmetry_Int_Tables_number   1
_chemical_formula_structural   GaBiN2
_chemical_formula_sum   'Ga16 Bi16 N32'
_cell_volume   973.90103268
_cell_formula_units_Z   16
loop_
 _symmetry_equiv_pos_site_id
 _symmetry_equiv_pos_as_xyz
  1  'x, y, z'
loop_
 _atom_site_type_symbol
 _atom_site_label
 _atom_site_symmetry_multiplicity
 _atom_site_fract_x
 _atom_site_fract_y
 _atom_site_fract_z
 _atom_site_occupancy
  Ga  Ga0  1  0.76199418  0.00718139  0.18446985  1
  Ga  Ga1  1  0.26199418  0.49281861  0.81553015  1
  Ga  Ga2  1  0.23800582  0.50718139  0.31553015  1
  Ga  Ga3  1  0.73800582  0.99281861  0.68446985  1
  Ga  Ga4  1  0.23800582  0.99281861  0.81553015  1
  Ga  Ga5  1  0.73800582  0.50718139  0.18446985  1
  Ga  Ga6  1  0.76199418  0.49281861  0.68446985  1
  Ga  Ga7  1  0.26199418  0.00718139  0.31553015  1
  Ga  Ga8  1  0.78112046  0.26817717  0.06406635  1
  Ga  Ga9  1  0.28112046  0.23182283  0.93593365  1
  Ga  Ga10  1  0.21887954  0.76817717  0.43593365  1
  Ga  Ga11  1  0.71887954  0.73182283  0.56406635  1
  Ga  Ga12  1  0.21887954  0.73182283  0.93593365  1
  Ga  Ga13  1  0.71887954  0.76817717  0.06406635  1
  Ga  Ga14  1  0.78112046  0.23182283  0.56406635  1
  Ga  Ga15  1  0.28112046  0.26817717  0.43593365  1
  Bi  Bi16  1  0.75328563  0.99899134  0.44236910  1
  Bi  Bi17  1  0.25328563  0.50100866  0.55763090  1
  Bi  Bi18  1  0.24671437  0.49899134  0.05763090  1
  Bi  Bi19  1  0.74671437  0.00100866  0.94236910  1
  Bi  Bi20  1  0.24671437  0.00100866  0.55763090  1
  Bi  Bi21  1  0.74671437  0.49899134  0.44236910  1
  Bi  Bi22  1  0.75328563  0.50100866  0.94236910  1
  Bi  Bi23  1  0.25328563  0.99899134  0.05763090  1
  Bi  Bi24  1  0.82596893  0.27201581  0.30191613  1
  Bi  Bi25  1  0.32596893  0.22798419  0.69808387  1
  Bi  Bi26  1  0.17403107  0.77201581  0.19808387  1
  Bi  Bi27  1  0.67403107  0.72798419  0.80191613  1
  Bi  Bi28  1  0.17403107  0.72798419  0.69808387  1
  Bi  Bi29  1  0.67403107  0.77201581  0.30191613  1
  Bi  Bi30  1  0.82596893  0.22798419  0.80191613  1
  Bi  Bi31  1  0.32596893  0.27201581  0.19808387  1
  N  N32  1  0.51744671  0.42699322  0.26433734  1
  N  N33  1  0.01744671  0.07300678  0.73566266  1
  N  N34  1  0.48255329  0.92699322  0.23566266  1
  N  N35  1  0.98255329  0.57300678  0.76433734  1
  N  N36  1  0.48255329  0.57300678  0.73566266  1
  N  N37  1  0.98255329  0.92699322  0.26433734  1
  N  N38  1  0.51744671  0.07300678  0.76433734  1
  N  N39  1  0.01744671  0.42699322  0.23566266  1
  N  N40  1  0.58560113  0.32224824  0.48402199  1
  N  N41  1  0.08560113  0.17775176  0.51597801  1
  N  N42  1  0.41439887  0.82224824  0.01597801  1
  N  N43  1  0.91439887  0.67775176  0.98402199  1
  N  N44  1  0.41439887  0.67775176  0.51597801  1
  N  N45  1  0.91439887  0.82224824  0.48402199  1
  N  N46  1  0.58560113  0.17775176  0.98402199  1
  N  N47  1  0.08560113  0.32224824  0.01597801  1
  N  N48  1  0.63889756  0.43760076  0.07319212  1
  N  N49  1  0.13889756  0.06239924  0.92680788  1
  N  N50  1  0.36110244  0.93760076  0.42680788  1
  N  N51  1  0.86110244  0.56239924  0.57319212  1
  N  N52  1  0.36110244  0.56239924  0.92680788  1
  N  N53  1  0.86110244  0.93760076  0.07319212  1
  N  N54  1  0.63889756  0.06239924  0.57319212  1
  N  N55  1  0.13889756  0.43760076  0.42680788  1
  N  N56  1  0.74892774  0.18638445  0.17596790  1
  N  N57  1  0.24892774  0.31361555  0.82403210  1
  N  N58  1  0.25107226  0.68638445  0.32403210  1
  N  N59  1  0.75107226  0.81361555  0.67596790  1
  N  N60  1  0.25107226  0.81361555  0.82403210  1
  N  N61  1  0.75107226  0.68638445  0.17596790  1
  N  N62  1  0.74892774  0.31361555  0.67596790  1
  N  N63  1  0.24892774  0.18638445  0.32403210  1
