# generated using pymatgen
data_ZnO
_symmetry_space_group_name_H-M   'P 1'
_cell_length_a   9.93774236
_cell_length_b   10.13621857
_cell_length_c   10.57088821
_cell_angle_alpha   90.26419201
_cell_angle_beta   93.01417618
_cell_angle_gamma   84.33840638
_symmetry_Int_Tables_number   1
_chemical_formula_structural   ZnO
_chemical_formula_sum   'Zn40 O40'
_cell_volume   1058.15712882
_cell_formula_units_Z   40
loop_
 _symmetry_equiv_pos_site_id
 _symmetry_equiv_pos_as_xyz
  1  'x, y, z'
loop_
 _atom_site_type_symbol
 _atom_site_label
 _atom_site_symmetry_multiplicity
 _atom_site_fract_x
 _atom_site_fract_y
 _atom_site_fract_z
 _atom_site_occupancy
  Zn  Zn0  1  0.06195219  0.73513340  0.75198869  1
  Zn  Zn1  1  0.74259982  0.46247046  0.21627156  1
  Zn  Zn2  1  0.58803716  0.48626930  0.45391416  1
  Zn  Zn3  1  0.11369988  0.79733849  0.50323014  1
  Zn  Zn4  1  0.23310523  0.78217933  0.19471529  1
  Zn  Zn5  1  0.26407962  0.98142607  0.66587198  1
  Zn  Zn6  1  0.21661158  0.43093428  0.96490412  1
  Zn  Zn7  1  0.22408884  0.54084132  0.28263288  1
  Zn  Zn8  1  0.08523051  0.25478654  0.55949281  1
  Zn  Zn9  1  0.66284643  0.26613877  0.71399299  1
  Zn  Zn10  1  0.64447153  0.04510036  0.34135564  1
  Zn  Zn11  1  0.28201085  0.54721385  0.53899096  1
  Zn  Zn12  1  0.43138119  0.00381368  0.18569148  1
  Zn  Zn13  1  0.71396379  0.78422068  0.84283763  1
  Zn  Zn14  1  0.95843568  0.57001646  0.11136689  1
  Zn  Zn15  1  0.44910784  0.77385931  0.39804406  1
  Zn  Zn16  1  0.80284589  0.00753719  0.01833447  1
  Zn  Zn17  1  0.94131414  0.38504974  0.73699690  1
  Zn  Zn18  1  0.67258392  0.47447787  0.95178817  1
  Zn  Zn19  1  0.87238252  0.79101144  0.26313708  1
  Zn  Zn20  1  0.97696590  0.04306577  0.76650272  1
  Zn  Zn21  1  0.96847900  0.09611659  0.25549101  1
  Zn  Zn22  1  0.94786818  0.27610938  0.99202316  1
  Zn  Zn23  1  0.33391874  0.83650957  0.92312727  1
  Zn  Zn24  1  0.35253786  0.27990376  0.74555796  1
  Zn  Zn25  1  0.60671880  0.78025305  0.11115556  1
  Zn  Zn26  1  0.19306787  0.08422040  0.05542419  1
  Zn  Zn27  1  0.65405146  0.57678722  0.69190454  1
  Zn  Zn28  1  0.40391539  0.59755863  0.77480503  1
  Zn  Zn29  1  0.78976134  0.19173636  0.49772389  1
  Zn  Zn30  1  0.11750744  0.31517255  0.29041385  1
  Zn  Zn31  1  0.02751519  0.83912621  0.00620156  1
  Zn  Zn32  1  0.42622363  0.26967548  0.45651174  1
  Zn  Zn33  1  0.44994485  0.28352066  0.14410281  1
  Zn  Zn34  1  0.45041619  0.56334984  0.14062916  1
  Zn  Zn35  1  0.53327141  0.99722607  0.62494893  1
  Zn  Zn36  1  0.93685585  0.53285801  0.44455849  1
  Zn  Zn37  1  0.79540692  0.83747049  0.53952398  1
  Zn  Zn38  1  0.26812665  0.04504562  0.39388586  1
  Zn  Zn39  1  0.49878558  0.04411266  0.90079017  1
  O  O40  1  0.84460823  0.43315786  0.05605170  1
  O  O41  1  0.53300311  0.14903428  0.75388420  1
  O  O42  1  0.41340637  0.91367566  0.78265040  1
  O  O43  1  0.91693897  0.19723357  0.64697821  1
  O  O44  1  0.58223074  0.41073164  0.10459695  1
  O  O45  1  0.26804587  0.17512191  0.62270937  1
  O  O46  1  0.06730873  0.20754381  0.13916610  1
  O  O47  1  0.39270187  0.12575353  0.03754118  1
  O  O48  1  0.64817196  0.91409319  0.97583528  1
  O  O49  1  0.91892745  0.79180136  0.85495247  1
  O  O50  1  0.08139379  0.91901505  0.64728768  1
  O  O51  1  0.27409415  0.39916726  0.42220604  1
  O  O52  1  0.38963451  0.93011361  0.50429861  1
  O  O53  1  0.70762832  0.74888199  0.66166349  1
  O  O54  1  0.29956857  0.43678254  0.13495686  1
  O  O55  1  0.03260480  0.49583151  0.28279883  1
  O  O56  1  0.60313816  0.29652386  0.53074597  1
  O  O57  1  0.23624011  0.71493423  0.38305124  1
  O  O58  1  0.57074365  0.88389066  0.27293694  1
  O  O59  1  0.47726223  0.56553784  0.59618112  1
  O  O60  1  0.24430442  0.96846678  0.22062546  1
  O  O61  1  0.45996231  0.16513579  0.30191239  1
  O  O62  1  0.57956659  0.63816286  0.87179900  1
  O  O63  1  0.79377264  0.14739294  0.31954380  1
  O  O64  1  0.40284979  0.74924346  0.07844619  1
  O  O65  1  0.92773476  0.93146163  0.15654301  1
  O  O66  1  0.02991438  0.44570890  0.59049757  1
  O  O67  1  0.07002823  0.35712590  0.88128002  1
  O  O68  1  0.74531913  0.41689394  0.77720337  1
  O  O69  1  0.77503614  0.67245203  0.15999259  1
  O  O70  1  0.48992960  0.60265081  0.32159414  1
  O  O71  1  0.76829160  0.46397408  0.39454491  1
  O  O72  1  0.10939315  0.67820949  0.09266923  1
  O  O73  1  0.87649014  0.12139917  0.90726082  1
  O  O74  1  0.22159392  0.66350135  0.68030175  1
  O  O75  1  0.09950291  0.15595450  0.39619438  1
  O  O76  1  0.15772571  0.94800112  0.92880389  1
  O  O77  1  0.69544649  0.00819642  0.52915140  1
  O  O78  1  0.93090164  0.74749163  0.43838675  1
  O  O79  1  0.36486301  0.42762800  0.84807088  1
