# generated using pymatgen
data_TiPb7N6
_symmetry_space_group_name_H-M   'P 1'
_cell_length_a   12.84325719
_cell_length_b   7.33128541
_cell_length_c   12.96864303
_cell_angle_alpha   90.00000000
_cell_angle_beta   90.00000000
_cell_angle_gamma   90.00000000
_symmetry_Int_Tables_number   1
_chemical_formula_structural   TiPb7N6
_chemical_formula_sum   'Ti4 Pb28 N24'
_cell_volume   1221.09609616
_cell_formula_units_Z   4
loop_
 _symmetry_equiv_pos_site_id
 _symmetry_equiv_pos_as_xyz
  1  'x, y, z'
loop_
 _atom_site_type_symbol
 _atom_site_label
 _atom_site_symmetry_multiplicity
 _atom_site_fract_x
 _atom_site_fract_y
 _atom_site_fract_z
 _atom_site_occupancy
  Ti  Ti0  1  0.00000000  0.83526791  0.75000000  1
  Ti  Ti1  1  0.50000000  0.66473209  0.25000000  1
  Ti  Ti2  1  0.00000000  0.16473209  0.25000000  1
  Ti  Ti3  1  0.50000000  0.33526791  0.75000000  1
  Pb  Pb4  1  0.00501086  0.76863642  0.02541078  1
  Pb  Pb5  1  0.49498914  0.73136358  0.52541078  1
  Pb  Pb6  1  0.50501086  0.73136358  0.97458922  1
  Pb  Pb7  1  0.99498914  0.76863642  0.47458922  1
  Pb  Pb8  1  0.99498914  0.23136358  0.97458922  1
  Pb  Pb9  1  0.50501086  0.26863642  0.47458922  1
  Pb  Pb10  1  0.49498914  0.26863642  0.02541078  1
  Pb  Pb11  1  0.00501086  0.23136358  0.52541078  1
  Pb  Pb12  1  0.20847750  0.82234519  0.62514029  1
  Pb  Pb13  1  0.29152250  0.67765481  0.12514029  1
  Pb  Pb14  1  0.70847750  0.67765481  0.37485971  1
  Pb  Pb15  1  0.79152250  0.82234519  0.87485971  1
  Pb  Pb16  1  0.79152250  0.17765481  0.37485971  1
  Pb  Pb17  1  0.70847750  0.32234519  0.87485971  1
  Pb  Pb18  1  0.29152250  0.32234519  0.62514029  1
  Pb  Pb19  1  0.20847750  0.17765481  0.12514029  1
  Pb  Pb20  1  0.25804450  0.52770983  0.86353491  1
  Pb  Pb21  1  0.24195550  0.97229017  0.36353491  1
  Pb  Pb22  1  0.75804450  0.97229017  0.13646509  1
  Pb  Pb23  1  0.74195550  0.52770983  0.63646509  1
  Pb  Pb24  1  0.74195550  0.47229017  0.13646509  1
  Pb  Pb25  1  0.75804450  0.02770983  0.63646509  1
  Pb  Pb26  1  0.24195550  0.02770983  0.86353491  1
  Pb  Pb27  1  0.25804450  0.47229017  0.36353491  1
  Pb  Pb28  1  0.00000000  0.43146439  0.75000000  1
  Pb  Pb29  1  0.50000000  0.06853561  0.25000000  1
  Pb  Pb30  1  0.00000000  0.56853561  0.25000000  1
  Pb  Pb31  1  0.50000000  0.93146439  0.75000000  1
  N  N32  1  0.11332947  0.66721484  0.77134778  1
  N  N33  1  0.38667053  0.83278516  0.27134778  1
  N  N34  1  0.61332947  0.83278516  0.22865222  1
  N  N35  1  0.88667053  0.66721484  0.72865222  1
  N  N36  1  0.88667053  0.33278516  0.22865222  1
  N  N37  1  0.61332947  0.16721484  0.72865222  1
  N  N38  1  0.38667053  0.16721484  0.77134778  1
  N  N39  1  0.11332947  0.33278516  0.27134778  1
  N  N40  1  0.17497264  0.71247289  0.46193803  1
  N  N41  1  0.32502736  0.78752711  0.96193803  1
  N  N42  1  0.67497264  0.78752711  0.53806197  1
  N  N43  1  0.82502736  0.71247289  0.03806197  1
  N  N44  1  0.82502736  0.28752711  0.53806197  1
  N  N45  1  0.67497264  0.21247289  0.03806197  1
  N  N46  1  0.32502736  0.21247289  0.46193803  1
  N  N47  1  0.17497264  0.28752711  0.96193803  1
  N  N48  1  0.46359881  0.45533948  0.61920988  1
  N  N49  1  0.03640119  0.04466052  0.11920988  1
  N  N50  1  0.96359881  0.04466052  0.38079012  1
  N  N51  1  0.53640119  0.45533948  0.88079012  1
  N  N52  1  0.53640119  0.54466052  0.38079012  1
  N  N53  1  0.96359881  0.95533948  0.88079012  1
  N  N54  1  0.03640119  0.95533948  0.61920988  1
  N  N55  1  0.46359881  0.54466052  0.11920988  1
