# generated using pymatgen
data_Sr(ZnN)2
_symmetry_space_group_name_H-M   'P 1'
_cell_length_a   6.00041199
_cell_length_b   6.62552333
_cell_length_c   7.49831114
_cell_angle_alpha   89.99999604
_cell_angle_beta   51.33129154
_cell_angle_gamma   56.48955553
_symmetry_Int_Tables_number   1
_chemical_formula_structural   Sr(ZnN)2
_chemical_formula_sum   'Sr2 Zn4 N4'
_cell_volume   164.57879041
_cell_formula_units_Z   2
loop_
 _symmetry_equiv_pos_site_id
 _symmetry_equiv_pos_as_xyz
  1  'x, y, z'
loop_
 _atom_site_type_symbol
 _atom_site_label
 _atom_site_symmetry_multiplicity
 _atom_site_fract_x
 _atom_site_fract_y
 _atom_site_fract_z
 _atom_site_occupancy
  Sr  Sr0  1  0.00000000  0.00000000  0.25000000  1
  Sr  Sr1  1  0.00000000  0.00000000  0.75000000  1
  Zn  Zn2  1  0.73385881  0.50000000  0.63307010  1
  Zn  Zn3  1  0.26614119  0.50000000  0.36692990  1
  Zn  Zn4  1  0.26614119  0.23385881  0.86692990  1
  Zn  Zn5  1  0.73385881  0.76614119  0.13307010  1
  N  N6  1  0.66917062  0.50000000  0.16541519  1
  N  N7  1  0.33082938  0.50000000  0.83458481  1
  N  N8  1  0.33082938  0.16917062  0.33458481  1
  N  N9  1  0.66917062  0.83082938  0.66541519  1
