# generated using pymatgen
data_CsGe2N3
_symmetry_space_group_name_H-M   'P 1'
_cell_length_a   5.99357212
_cell_length_b   6.18117753
_cell_length_c   5.48383633
_cell_angle_alpha   90.00000000
_cell_angle_beta   90.00000000
_cell_angle_gamma   121.04094820
_symmetry_Int_Tables_number   1
_chemical_formula_structural   CsGe2N3
_chemical_formula_sum   'Cs2 Ge4 N6'
_cell_volume   174.06857950
_cell_formula_units_Z   2
loop_
 _symmetry_equiv_pos_site_id
 _symmetry_equiv_pos_as_xyz
  1  'x, y, z'
loop_
 _atom_site_type_symbol
 _atom_site_label
 _atom_site_symmetry_multiplicity
 _atom_site_fract_x
 _atom_site_fract_y
 _atom_site_fract_z
 _atom_site_occupancy
  Cs  Cs0  1  0.00000000  0.65298101  0.48606455  1
  Cs  Cs1  1  -0.00000000  0.34701899  0.98606455  1
  Ge  Ge2  1  0.34831698  0.31129201  0.49045276  1
  Ge  Ge3  1  0.65168302  0.96297503  0.49045276  1
  Ge  Ge4  1  0.65168302  0.68870799  0.99045276  1
  Ge  Ge5  1  0.34831698  0.03702497  0.99045276  1
  N  N6  1  0.48639180  0.35927617  0.82076960  1
  N  N7  1  0.51360820  0.87288337  0.82076960  1
  N  N8  1  0.51360820  0.64072383  0.32076960  1
  N  N9  1  0.48639180  0.12711663  0.32076960  1
  N  N10  1  -0.00000000  0.83500152  0.97948972  1
  N  N11  1  0.00000000  0.16499848  0.47948972  1
