# generated using pymatgen
data_Bi4Te3N2
_symmetry_space_group_name_H-M   'P 1'
_cell_length_a   7.58445823
_cell_length_b   11.31630338
_cell_length_c   11.71350949
_cell_angle_alpha   90.00000000
_cell_angle_beta   90.00000000
_cell_angle_gamma   90.00000000
_symmetry_Int_Tables_number   1
_chemical_formula_structural   Bi4Te3N2
_chemical_formula_sum   'Bi16 Te12 N8'
_cell_volume   1005.34744747
_cell_formula_units_Z   4
loop_
 _symmetry_equiv_pos_site_id
 _symmetry_equiv_pos_as_xyz
  1  'x, y, z'
loop_
 _atom_site_type_symbol
 _atom_site_label
 _atom_site_symmetry_multiplicity
 _atom_site_fract_x
 _atom_site_fract_y
 _atom_site_fract_z
 _atom_site_occupancy
  Bi  Bi0  1  0.58497618  0.25000000  0.82457659  1
  Bi  Bi1  1  0.08497618  0.25000000  0.67542341  1
  Bi  Bi2  1  0.41502382  0.75000000  0.17542341  1
  Bi  Bi3  1  0.91502382  0.75000000  0.32457659  1
  Bi  Bi4  1  0.74890972  0.25000000  0.47248883  1
  Bi  Bi5  1  0.24890972  0.25000000  0.02751117  1
  Bi  Bi6  1  0.25109028  0.75000000  0.52751117  1
  Bi  Bi7  1  0.75109028  0.75000000  0.97248883  1
  Bi  Bi8  1  0.66249728  0.44658137  0.09675488  1
  Bi  Bi9  1  0.16249728  0.05341863  0.40324512  1
  Bi  Bi10  1  0.33750272  0.94658137  0.90324512  1
  Bi  Bi11  1  0.83750272  0.55341863  0.59675488  1
  Bi  Bi12  1  0.33750272  0.55341863  0.90324512  1
  Bi  Bi13  1  0.83750272  0.94658137  0.59675488  1
  Bi  Bi14  1  0.66249728  0.05341863  0.09675488  1
  Bi  Bi15  1  0.16249728  0.44658137  0.40324512  1
  Te  Te16  1  0.94485594  0.25000000  0.26021413  1
  Te  Te17  1  0.44485594  0.25000000  0.23978587  1
  Te  Te18  1  0.05514406  0.75000000  0.73978587  1
  Te  Te19  1  0.55514406  0.75000000  0.76021413  1
  Te  Te20  1  0.60412611  0.55921789  0.35821415  1
  Te  Te21  1  0.10412611  0.94078211  0.14178585  1
  Te  Te22  1  0.39587389  0.05921789  0.64178585  1
  Te  Te23  1  0.89587389  0.44078211  0.85821415  1
  Te  Te24  1  0.39587389  0.44078211  0.64178585  1
  Te  Te25  1  0.89587389  0.05921789  0.85821415  1
  Te  Te26  1  0.60412611  0.94078211  0.35821415  1
  Te  Te27  1  0.10412611  0.55921789  0.14178585  1
  N  N28  1  0.54649098  0.62236506  0.04132985  1
  N  N29  1  0.04649098  0.87763494  0.45867015  1
  N  N30  1  0.45350902  0.12236506  0.95867015  1
  N  N31  1  0.95350902  0.37763494  0.54132985  1
  N  N32  1  0.45350902  0.37763494  0.95867015  1
  N  N33  1  0.95350902  0.12236506  0.54132985  1
  N  N34  1  0.54649098  0.87763494  0.04132985  1
  N  N35  1  0.04649098  0.62236506  0.45867015  1
