# generated using pymatgen
data_Mg(C4N3)2
_symmetry_space_group_name_H-M   'P 1'
_cell_length_a   12.91377893
_cell_length_b   12.91842338
_cell_length_c   5.73710890
_cell_angle_alpha   90.02906594
_cell_angle_beta   89.98546332
_cell_angle_gamma   120.01189819
_symmetry_Int_Tables_number   1
_chemical_formula_structural   Mg(C4N3)2
_chemical_formula_sum   'Mg3 C24 N18'
_cell_volume   828.77081471
_cell_formula_units_Z   3
loop_
 _symmetry_equiv_pos_site_id
 _symmetry_equiv_pos_as_xyz
  1  'x, y, z'
loop_
 _atom_site_type_symbol
 _atom_site_label
 _atom_site_symmetry_multiplicity
 _atom_site_fract_x
 _atom_site_fract_y
 _atom_site_fract_z
 _atom_site_occupancy
  Mg  Mg0  1  1.00000000  0.00005601  0.14955938  1
  Mg  Mg1  1  0.33332959  0.66663113  0.89193166  1
  Mg  Mg2  1  0.66667041  0.33330154  0.89193166  1
  C  C3  1  0.00000000  0.65999270  0.22615856  1
  C  C4  1  0.65962038  0.00006778  0.22586870  1
  C  C5  1  0.34037962  0.34044741  0.22586870  1
  C  C6  1  0.00000000  0.76402287  0.29274157  1
  C  C7  1  0.76397019  0.00018493  0.29290966  1
  C  C8  1  0.23602981  0.23621474  0.29290966  1
  C  C9  1  0.10684262  0.66236182  0.16749548  1
  C  C10  1  0.55551676  0.89332966  0.16734049  1
  C  C11  1  0.33770991  0.44460232  0.16726882  1
  C  C12  1  0.89315738  0.55551919  0.16749548  1
  C  C13  1  0.66229009  0.10689342  0.16726882  1
  C  C14  1  0.44448324  0.33781290  0.16734049  1
  C  C15  1  0.68216844  0.68194634  0.73858094  1
  C  C16  1  0.00000000  0.31775794  0.73873601  1
  C  C17  1  0.31783156  -0.00022311  0.73858094  1
  C  C18  1  0.78131182  0.78123548  0.83945714  1
  C  C19  1  0.00000000  0.21861963  0.83954713  1
  C  C20  1  0.21868818  0.99992466  0.83945714  1
  C  C21  1  0.57492135  0.68303776  0.70933592  1
  C  C22  1  0.10823262  0.42492850  0.70956631  1
  C  C23  1  0.31685150  0.89171695  0.70964948  1
  C  C24  1  0.42507865  0.10811641  0.70933592  1
  C  C25  1  0.68314850  0.57486545  0.70964948  1
  C  C26  1  0.89176738  0.31669488  0.70956631  1
  N  N27  1  1.00000000  0.85250506  0.34006483  1
  N  N28  1  0.85244459  0.00013912  0.34041699  1
  N  N29  1  0.14755541  0.14769453  0.34041699  1
  N  N30  1  0.19227993  0.65985554  0.10857915  1
  N  N31  1  0.46771134  0.80784046  0.10842617  1
  N  N32  1  0.34015154  0.53240654  0.10826393  1
  N  N33  1  0.80772007  0.46757461  0.10857915  1
  N  N34  1  0.65984846  0.19225500  0.10826393  1
  N  N35  1  0.53228866  0.34013012  0.10842617  1
  N  N36  1  0.86252357  0.86254004  0.92939568  1
  N  N37  1  1.00000000  0.13743205  0.92946589  1
  N  N38  1  0.13747643  0.00001647  0.92939568  1
  N  N39  1  0.48462864  0.68345567  0.69265304  1
  N  N40  1  0.19885066  0.51523993  0.69283971  1
  N  N41  1  0.31648358  0.80106193  0.69316405  1
  N  N42  1  0.51537136  0.19882703  0.69265304  1
  N  N43  1  0.68351642  0.48457835  0.69316405  1
  N  N44  1  0.80114934  0.31638927  0.69283971  1
