# generated using pymatgen
data_Ca5(AgN2)2
_symmetry_space_group_name_H-M   'P 1'
_cell_length_a   7.98932188
_cell_length_b   7.98932188
_cell_length_c   13.39375138
_cell_angle_alpha   90.00000000
_cell_angle_beta   90.00000000
_cell_angle_gamma   90.00000000
_symmetry_Int_Tables_number   1
_chemical_formula_structural   Ca5(AgN2)2
_chemical_formula_sum   'Ca20 Ag8 N16'
_cell_volume   854.91329415
_cell_formula_units_Z   4
loop_
 _symmetry_equiv_pos_site_id
 _symmetry_equiv_pos_as_xyz
  1  'x, y, z'
loop_
 _atom_site_type_symbol
 _atom_site_label
 _atom_site_symmetry_multiplicity
 _atom_site_fract_x
 _atom_site_fract_y
 _atom_site_fract_z
 _atom_site_occupancy
  Ca  Ca0  1  0.75000000  0.75000000  0.37194887  1
  Ca  Ca1  1  0.75000000  0.75000000  0.87194887  1
  Ca  Ca2  1  0.25000000  0.25000000  0.62805113  1
  Ca  Ca3  1  0.25000000  0.25000000  0.12805113  1
  Ca  Ca4  1  0.13266184  0.57757700  0.41659225  1
  Ca  Ca5  1  0.36733816  0.57757700  0.91659225  1
  Ca  Ca6  1  0.13266184  0.92242300  0.91659225  1
  Ca  Ca7  1  0.36733816  0.92242300  0.41659225  1
  Ca  Ca8  1  0.57757700  0.13266184  0.91659225  1
  Ca  Ca9  1  0.92242300  0.13266184  0.41659225  1
  Ca  Ca10  1  0.57757700  0.36733816  0.41659225  1
  Ca  Ca11  1  0.92242300  0.36733816  0.91659225  1
  Ca  Ca12  1  0.86733816  0.42242300  0.58340775  1
  Ca  Ca13  1  0.63266184  0.42242300  0.08340775  1
  Ca  Ca14  1  0.86733816  0.07757700  0.08340775  1
  Ca  Ca15  1  0.63266184  0.07757700  0.58340775  1
  Ca  Ca16  1  0.42242300  0.86733816  0.08340775  1
  Ca  Ca17  1  0.07757700  0.86733816  0.58340775  1
  Ca  Ca18  1  0.42242300  0.63266184  0.58340775  1
  Ca  Ca19  1  0.07757700  0.63266184  0.08340775  1
  Ag  Ag20  1  0.09498359  0.90501641  0.25000000  1
  Ag  Ag21  1  0.40501641  0.90501641  0.75000000  1
  Ag  Ag22  1  0.09498359  0.59498359  0.75000000  1
  Ag  Ag23  1  0.40501641  0.59498359  0.25000000  1
  Ag  Ag24  1  0.90501641  0.09498359  0.75000000  1
  Ag  Ag25  1  0.59498359  0.09498359  0.25000000  1
  Ag  Ag26  1  0.90501641  0.40501641  0.25000000  1
  Ag  Ag27  1  0.59498359  0.40501641  0.75000000  1
  N  N28  1  0.63771653  0.05055146  0.40430858  1
  N  N29  1  0.86228347  0.05055146  0.90430858  1
  N  N30  1  0.63771653  0.44944854  0.90430858  1
  N  N31  1  0.86228347  0.44944854  0.40430858  1
  N  N32  1  0.05055146  0.63771653  0.90430858  1
  N  N33  1  0.44944854  0.63771653  0.40430858  1
  N  N34  1  0.05055146  0.86228347  0.40430858  1
  N  N35  1  0.44944854  0.86228347  0.90430858  1
  N  N36  1  0.36228347  0.94944854  0.59569142  1
  N  N37  1  0.13771653  0.94944854  0.09569142  1
  N  N38  1  0.36228347  0.55055146  0.09569142  1
  N  N39  1  0.13771653  0.55055146  0.59569142  1
  N  N40  1  0.94944854  0.36228347  0.09569142  1
  N  N41  1  0.55055146  0.36228347  0.59569142  1
  N  N42  1  0.94944854  0.13771653  0.59569142  1
  N  N43  1  0.55055146  0.13771653  0.09569142  1
