# generated using pymatgen
data_MnSi7N10
_symmetry_space_group_name_H-M   'P 1'
_cell_length_a   6.73030422
_cell_length_b   6.89457078
_cell_length_c   9.71518621
_cell_angle_alpha   90.00000000
_cell_angle_beta   104.67044997
_cell_angle_gamma   90.00000000
_symmetry_Int_Tables_number   1
_chemical_formula_structural   MnSi7N10
_chemical_formula_sum   'Mn2 Si14 N20'
_cell_volume   436.11243295
_cell_formula_units_Z   2
loop_
 _symmetry_equiv_pos_site_id
 _symmetry_equiv_pos_as_xyz
  1  'x, y, z'
loop_
 _atom_site_type_symbol
 _atom_site_label
 _atom_site_symmetry_multiplicity
 _atom_site_fract_x
 _atom_site_fract_y
 _atom_site_fract_z
 _atom_site_occupancy
  Mn  Mn0  1  0.99758718  0.93380883  0.70104507  1
  Mn  Mn1  1  0.99758718  0.06619117  0.20104507  1
  Si  Si2  1  0.54121192  0.97939383  0.82270297  1
  Si  Si3  1  0.54121192  0.02060617  0.32270297  1
  Si  Si4  1  0.34947174  0.02221494  0.01905637  1
  Si  Si5  1  0.34947174  0.97778506  0.51905637  1
  Si  Si6  1  0.10963494  0.40017270  0.07327988  1
  Si  Si7  1  0.10963494  0.59982730  0.57327988  1
  Si  Si8  1  0.66009508  0.36140382  0.99073169  1
  Si  Si9  1  0.66009508  0.63859618  0.49073169  1
  Si  Si10  1  0.84356712  0.61581548  0.80762766  1
  Si  Si11  1  0.84356712  0.38418452  0.30762766  1
  Si  Si12  1  0.29829521  0.61834265  0.88168629  1
  Si  Si13  1  0.29829521  0.38165735  0.38168629  1
  Si  Si14  1  0.48432857  0.36672775  0.68526903  1
  Si  Si15  1  0.48432857  0.63327225  0.18526903  1
  N  N16  1  0.74820689  0.84536699  0.81010900  1
  N  N17  1  0.74820689  0.15463301  0.31010900  1
  N  N18  1  0.55336870  0.13617531  0.96778996  1
  N  N19  1  0.55336870  0.86382469  0.46778996  1
  N  N20  1  0.31320187  0.86957521  0.86435781  1
  N  N21  1  0.31320187  0.13042479  0.36435781  1
  N  N22  1  0.15207930  0.15937649  0.04428325  1
  N  N23  1  0.15207930  0.84062351  0.54428325  1
  N  N24  1  0.28927800  0.50566251  0.72203088  1
  N  N25  1  0.28927800  0.49433749  0.22203088  1
  N  N26  1  0.44538806  0.11959845  0.66986214  1
  N  N27  1  0.44538806  0.88040155  0.16986214  1
  N  N28  1  0.88249280  0.38382500  0.13093229  1
  N  N29  1  0.88249280  0.61617500  0.63093229  1
  N  N30  1  0.07569921  0.56888995  0.93373289  1
  N  N31  1  0.07569921  0.43111005  0.43373289  1
  N  N32  1  0.69959726  0.41343004  0.82361033  1
  N  N33  1  0.69959726  0.58656996  0.32361033  1
  N  N34  1  0.49879615  0.54188046  0.02119050  1
  N  N35  1  0.49879615  0.45811954  0.52119050  1
