# generated using pymatgen
data_Ge7PbN10
_symmetry_space_group_name_H-M   'P 1'
_cell_length_a   7.32333164
_cell_length_b   7.12962249
_cell_length_c   10.34353387
_cell_angle_alpha   90.00000000
_cell_angle_beta   105.58202353
_cell_angle_gamma   90.00000000
_symmetry_Int_Tables_number   1
_chemical_formula_structural   Ge7PbN10
_chemical_formula_sum   'Ge14 Pb2 N20'
_cell_volume   520.21371037
_cell_formula_units_Z   2
loop_
 _symmetry_equiv_pos_site_id
 _symmetry_equiv_pos_as_xyz
  1  'x, y, z'
loop_
 _atom_site_type_symbol
 _atom_site_label
 _atom_site_symmetry_multiplicity
 _atom_site_fract_x
 _atom_site_fract_y
 _atom_site_fract_z
 _atom_site_occupancy
  Ge  Ge0  1  0.54245581  0.97118004  0.82753480  1
  Ge  Ge1  1  0.54245581  0.02881996  0.32753480  1
  Ge  Ge2  1  0.35371330  0.02679870  0.01893540  1
  Ge  Ge3  1  0.35371330  0.97320130  0.51893540  1
  Ge  Ge4  1  0.11035178  0.39559137  0.07953729  1
  Ge  Ge5  1  0.11035178  0.60440863  0.57953729  1
  Ge  Ge6  1  0.66621272  0.36904782  0.99506313  1
  Ge  Ge7  1  0.66621272  0.63095218  0.49506313  1
  Ge  Ge8  1  0.85334514  0.62762169  0.81291435  1
  Ge  Ge9  1  0.85334514  0.37237831  0.31291435  1
  Ge  Ge10  1  0.29728203  0.61928858  0.88748944  1
  Ge  Ge11  1  0.29728203  0.38071142  0.38748944  1
  Ge  Ge12  1  0.48667533  0.37013453  0.69165036  1
  Ge  Ge13  1  0.48667533  0.62986547  0.19165036  1
  Pb  Pb14  1  0.92319870  0.04978114  0.58761072  1
  Pb  Pb15  1  0.92319870  0.95021886  0.08761072  1
  N  N16  1  0.76943951  0.85359779  0.85664973  1
  N  N17  1  0.76943951  0.14640221  0.35664973  1
  N  N18  1  0.57423189  0.12808347  0.97968591  1
  N  N19  1  0.57423189  0.87191653  0.47968591  1
  N  N20  1  0.32326283  0.87183205  0.86769413  1
  N  N21  1  0.32326283  0.12816795  0.36769413  1
  N  N22  1  0.14401731  0.15701713  0.02486906  1
  N  N23  1  0.14401731  0.84298287  0.52486906  1
  N  N24  1  0.28467051  0.49940784  0.72804510  1
  N  N25  1  0.28467051  0.50059216  0.22804510  1
  N  N26  1  0.45250518  0.11446811  0.67451703  1
  N  N27  1  0.45250518  0.88553189  0.17451703  1
  N  N28  1  0.88542880  0.37519157  0.13512045  1
  N  N29  1  0.88542880  0.62480843  0.63512045  1
  N  N30  1  0.07975243  0.58569028  0.94614134  1
  N  N31  1  0.07975243  0.41430972  0.44614134  1
  N  N32  1  0.70442980  0.41935809  0.82749989  1
  N  N33  1  0.70442980  0.58064191  0.32749989  1
  N  N34  1  0.49132791  0.53111236  0.02834286  1
  N  N35  1  0.49132791  0.46888764  0.52834286  1
