# generated using pymatgen
data_Na5Mn7O15
_symmetry_space_group_name_H-M   'P 1'
_cell_length_a   6.26584603
_cell_length_b   6.38023999
_cell_length_c   10.55629526
_cell_angle_alpha   94.95704181
_cell_angle_beta   67.83209421
_cell_angle_gamma   119.64671163
_symmetry_Int_Tables_number   1
_chemical_formula_structural   Na5Mn7O15
_chemical_formula_sum   'Na5 Mn7 O15'
_cell_volume   337.01500323
_cell_formula_units_Z   1
loop_
 _symmetry_equiv_pos_site_id
 _symmetry_equiv_pos_as_xyz
  1  'x, y, z'
loop_
 _atom_site_type_symbol
 _atom_site_label
 _atom_site_symmetry_multiplicity
 _atom_site_fract_x
 _atom_site_fract_y
 _atom_site_fract_z
 _atom_site_occupancy
  Na  Na0  1  0.88267191  0.18443270  0.42738250  1
  Na  Na1  1  0.11803314  0.32191788  0.07525344  1
  Na  Na2  1  0.48981766  0.75296494  0.25533357  1
  Na  Na3  1  0.88118154  0.70622106  0.92274392  1
  Na  Na4  1  0.12323917  0.79678757  0.56749395  1
  Mn  Mn5  1  0.49994392  0.01500559  0.00324781  1
  Mn  Mn6  1  0.52635576  0.29242414  0.23819203  1
  Mn  Mn7  1  0.50217676  0.48742560  0.50166341  1
  Mn  Mn8  1  0.49974650  0.25080469  0.75194322  1
  Mn  Mn9  1  0.98434443  0.75371837  0.23799627  1
  Mn  Mn10  1  0.99939740  0.25051688  0.75136570  1
  Mn  Mn11  1  0.49895419  0.75142988  0.75215723  1
  O  O12  1  0.67775814  0.11553547  0.13128203  1
  O  O13  1  0.26032151  0.10901233  0.15697716  1
  O  O14  1  0.73448581  0.58977931  0.14045127  1
  O  O15  1  0.73775961  0.39609420  0.35213366  1
  O  O16  1  0.76610242  0.15882682  0.65093327  1
  O  O17  1  0.31022752  0.38106435  0.38382698  1
  O  O18  1  0.73826562  0.80176579  0.39299676  1
  O  O19  1  0.73469359  0.32251426  0.88406353  1
  O  O20  1  0.26388492  0.70719506  0.11657936  1
  O  O21  1  0.26675060  0.17481041  0.61835967  1
  O  O22  1  0.68624838  0.58560308  0.63424724  1
  O  O23  1  0.23343259  0.34335585  0.85180643  1
  O  O24  1  0.26124236  0.58305347  0.64560394  1
  O  O25  1  0.73670925  0.92092474  0.85801565  1
  O  O26  1  0.31611731  0.91868355  0.87083201  1
