# generated using pymatgen
data_Al2O3
_symmetry_space_group_name_H-M   'P 1'
_cell_length_a   10.23889135
_cell_length_b   10.16428117
_cell_length_c   10.71694409
_cell_angle_alpha   91.48482976
_cell_angle_beta   88.91262604
_cell_angle_gamma   89.00884386
_symmetry_Int_Tables_number   1
_chemical_formula_structural   Al2O3
_chemical_formula_sum   'Al40 O60'
_cell_volume   1114.57089675
_cell_formula_units_Z   20
loop_
 _symmetry_equiv_pos_site_id
 _symmetry_equiv_pos_as_xyz
  1  'x, y, z'
loop_
 _atom_site_type_symbol
 _atom_site_label
 _atom_site_symmetry_multiplicity
 _atom_site_fract_x
 _atom_site_fract_y
 _atom_site_fract_z
 _atom_site_occupancy
  Al  Al0  1  0.77576321  0.53020547  0.58851973  1
  Al  Al1  1  0.85578466  0.69035644  0.34804969  1
  Al  Al2  1  0.51636576  0.89977355  0.78080897  1
  Al  Al3  1  0.79350367  0.71308386  0.01281236  1
  Al  Al4  1  0.81863272  0.49307739  0.18258903  1
  Al  Al5  1  0.28451709  0.80638121  0.53324520  1
  Al  Al6  1  0.20393176  0.49747264  0.60178221  1
  Al  Al7  1  0.95730652  0.25031368  0.51560029  1
  Al  Al8  1  0.32271705  0.43425784  0.36712414  1
  Al  Al9  1  0.81462816  0.25252422  0.95966823  1
  Al  Al10  1  0.61234655  0.75361758  0.54047264  1
  Al  Al11  1  0.31272860  0.70981478  0.78834432  1
  Al  Al12  1  0.56094316  0.21741155  0.40501601  1
  Al  Al13  1  0.85242092  0.94236293  0.47921825  1
  Al  Al14  1  0.69789959  0.00301671  0.99637380  1
  Al  Al15  1  0.02277885  0.63597973  0.80382947  1
  Al  Al16  1  0.32352216  0.20793640  0.17066910  1
  Al  Al17  1  0.06292883  0.02642133  0.67343463  1
  Al  Al18  1  0.63202877  0.61185914  0.80299371  1
  Al  Al19  1  0.52974759  0.03188750  0.56284235  1
  Al  Al20  1  0.65266257  0.20972920  0.72184610  1
  Al  Al21  1  0.09892525  0.38090423  0.03692528  1
  Al  Al22  1  0.91120882  0.39380597  0.76196161  1
  Al  Al23  1  0.11930549  0.84215119  0.29545876  1
  Al  Al24  1  0.28483976  0.61363746  0.13061200  1
  Al  Al25  1  0.45312831  0.45451679  0.67638413  1
  Al  Al26  1  0.01362768  0.06119307  0.07666340  1
  Al  Al27  1  0.59515768  0.34585321  0.18776342  1
  Al  Al28  1  0.82321970  0.85128775  0.75743246  1
  Al  Al29  1  0.23709550  0.09178766  0.49051098  1
  Al  Al30  1  0.82455943  0.12615161  0.29649581  1
  Al  Al31  1  0.51724429  0.64562423  0.24276576  1
  Al  Al32  1  0.61893123  0.92645271  0.31855974  1
  Al  Al33  1  0.49396547  0.25120434  0.92788545  1
  Al  Al34  1  0.25681769  0.02467360  0.92460318  1
  Al  Al35  1  0.46335790  0.89953019  0.07643409  1
  Al  Al36  1  0.09775825  0.17933431  0.26418684  1
  Al  Al37  1  0.27903714  0.20683190  0.73162639  1
  Al  Al38  1  0.08899598  0.76628968  0.00740012  1
  Al  Al39  1  0.05179152  0.44560672  0.31568461  1
  O  O40  1  0.07225829  0.99171034  0.22636100  1
  O  O41  1  0.15213709  0.19947845  0.07670685  1
  O  O42  1  0.64531040  0.16657058  0.94231895  1
  O  O43  1  0.97061389  0.81257785  0.39547729  1
  O  O44  1  0.36386751  0.12700246  0.59542549  1
  O  O45  1  0.80755758  0.25146753  0.78274817  1
  O  O46  1  0.02340174  0.29032737  0.37670991  1
  O  O47  1  0.09898472  0.17940606  0.58495131  1
  O  O48  1  0.74586993  0.36300382  0.08232460  1
  O  O49  1  0.15722420  0.50168177  0.43839555  1
  O  O50  1  0.46075157  0.29031698  0.08794147  1
  O  O51  1  0.89678694  0.97819097  0.65672535  1
  O  O52  1  0.87683317  0.11397837  0.45633713  1
  O  O53  1  0.63238582  0.51238497  0.23432057  1
  O  O54  1  0.17167569  0.69295645  0.87608736  1
  O  O55  1  0.68054866  0.91861718  0.51794071  1
  O  O56  1  0.68653363  0.23187167  0.29013521  1
  O  O57  1  0.97163043  0.34948850  0.92002760  1
  O  O58  1  0.79357280  0.53262721  0.75946701  1
  O  O59  1  0.17589999  0.94481988  0.56693402  1
  O  O60  1  0.51239240  0.04832014  0.39401598  1
  O  O61  1  0.86130297  0.08567494  0.99769465  1
  O  O62  1  0.42663841  0.73277680  0.11644607  1
  O  O63  1  0.79807845  0.86518314  0.92611035  1
  O  O64  1  0.60070190  0.55162165  0.61469672  1
  O  O65  1  0.34428814  0.03002758  0.08126765  1
  O  O66  1  0.94743806  0.74538865  0.71180478  1
  O  O67  1  0.05635094  0.49010079  0.71335538  1
  O  O68  1  0.14613505  0.72873340  0.15822120  1
  O  O69  1  0.15531240  0.09180173  0.79624735  1
  O  O70  1  0.60779900  0.95372327  0.15274885  1
  O  O71  1  0.37630973  0.46184871  0.52506900  1
  O  O72  1  0.45730757  0.31618696  0.31994495  1
  O  O73  1  0.88788546  0.51906044  0.34548949  1
  O  O74  1  0.61434912  0.21211769  0.55843633  1
  O  O75  1  0.93807510  0.18094121  0.19047169  1
  O  O76  1  0.10501297  0.93754875  0.98234011  1
  O  O77  1  0.26254328  0.81135889  0.37487436  1
  O  O78  1  0.36792890  0.56302518  0.26630624  1
  O  O79  1  0.25156735  0.12673188  0.33246560  1
  O  O80  1  0.57145523  0.76107498  0.35736330  1
  O  O81  1  0.36138954  0.16351310  0.87142119  1
  O  O82  1  0.23104849  0.49014445  0.02849210  1
  O  O83  1  0.54011720  0.33864432  0.78466308  1
  O  O84  1  0.45332032  0.84976782  0.58990005  1
  O  O85  1  0.44920265  0.60127135  0.79248481  1
  O  O86  1  0.24819315  0.67429418  0.63571227  1
  O  O87  1  0.81580171  0.68357419  0.17881831  1
  O  O88  1  0.66014337  0.62886452  0.96250286  1
  O  O89  1  0.77116498  0.67720353  0.49820605  1
  O  O90  1  0.34456991  0.87966847  0.82628318  1
  O  O91  1  0.58371868  0.04575810  0.72249850  1
  O  O92  1  0.86979892  0.38077519  0.58457557  1
  O  O93  1  0.65449886  0.78106847  0.72730803  1
  O  O94  1  0.28584661  0.37948422  0.71440874  1
  O  O95  1  0.99538327  0.45217600  0.15545741  1
  O  O96  1  0.55419508  0.91838582  0.93740531  1
  O  O97  1  0.95483904  0.66491384  0.96255817  1
  O  O98  1  0.21873685  0.34879389  0.24843510  1
  O  O99  1  0.78776261  0.95661760  0.30939338  1
