# generated using pymatgen
data_Ca3(BiN2)2
_symmetry_space_group_name_H-M   'P 1'
_cell_length_a   8.11252546
_cell_length_b   11.90849572
_cell_length_c   5.29735885
_cell_angle_alpha   89.99999626
_cell_angle_beta   96.47944658
_cell_angle_gamma   137.21918669
_symmetry_Int_Tables_number   1
_chemical_formula_structural   Ca3(BiN2)2
_chemical_formula_sum   'Ca6 Bi4 N8'
_cell_volume   342.75875787
_cell_formula_units_Z   2
loop_
 _symmetry_equiv_pos_site_id
 _symmetry_equiv_pos_as_xyz
  1  'x, y, z'
loop_
 _atom_site_type_symbol
 _atom_site_label
 _atom_site_symmetry_multiplicity
 _atom_site_fract_x
 _atom_site_fract_y
 _atom_site_fract_z
 _atom_site_occupancy
  Ca  Ca0  1  0.21882161  0.01710220  0.06318507  1
  Ca  Ca1  1  0.78117839  0.79828058  0.43681493  1
  Ca  Ca2  1  0.78117839  0.98289780  0.93681493  1
  Ca  Ca3  1  0.21882161  0.20171942  0.56318507  1
  Ca  Ca4  1  0.00000000  0.68566030  0.75000000  1
  Ca  Ca5  1  1.00000000  0.31433970  0.25000000  1
  Bi  Bi6  1  0.62243287  0.20669950  0.65979221  1
  Bi  Bi7  1  0.37756713  0.58426762  0.84020779  1
  Bi  Bi8  1  0.37756713  0.79330050  0.34020779  1
  Bi  Bi9  1  0.62243287  0.41573238  0.15979221  1
  N  N10  1  0.21606139  0.99603018  0.57547515  1
  N  N11  1  0.78393861  0.77996879  0.92452485  1
  N  N12  1  0.78393861  0.00396982  0.42452485  1
  N  N13  1  0.21606139  0.22003121  0.07547515  1
  N  N14  1  0.65648733  0.24721687  0.08693971  1
  N  N15  1  0.34351267  0.59072954  0.41306029  1
  N  N16  1  0.34351267  0.75278313  0.91306029  1
  N  N17  1  0.65648733  0.40927046  0.58693971  1
