# generated using pymatgen
data_TiO2
_symmetry_space_group_name_H-M   'P 1'
_cell_length_a   10.36447698
_cell_length_b   10.63076341
_cell_length_c   10.32659754
_cell_angle_alpha   93.99498655
_cell_angle_beta   88.82900072
_cell_angle_gamma   91.78792411
_symmetry_Int_Tables_number   1
_chemical_formula_structural   TiO2
_chemical_formula_sum   'Ti30 O60'
_cell_volume   1134.30068993
_cell_formula_units_Z   30
loop_
 _symmetry_equiv_pos_site_id
 _symmetry_equiv_pos_as_xyz
  1  'x, y, z'
loop_
 _atom_site_type_symbol
 _atom_site_label
 _atom_site_symmetry_multiplicity
 _atom_site_fract_x
 _atom_site_fract_y
 _atom_site_fract_z
 _atom_site_occupancy
  Ti  Ti0  1  0.23217208  0.16974820  0.30039374  1
  Ti  Ti1  1  0.78405234  0.06317436  0.49136604  1
  Ti  Ti2  1  0.49023742  0.73539375  0.58075036  1
  Ti  Ti3  1  0.80723631  0.76191154  0.22731099  1
  Ti  Ti4  1  0.32525607  0.47328644  0.14483623  1
  Ti  Ti5  1  0.50816982  0.24736875  0.24365487  1
  Ti  Ti6  1  0.03371435  0.56539981  0.30990953  1
  Ti  Ti7  1  0.58789889  0.57756128  0.99493334  1
  Ti  Ti8  1  0.74897322  0.46054920  0.71804705  1
  Ti  Ti9  1  0.54102644  0.25489209  0.50800337  1
  Ti  Ti10  1  0.40302299  0.03953760  0.99614364  1
  Ti  Ti11  1  0.00746614  0.34101748  0.55381054  1
  Ti  Ti12  1  0.09188791  0.44202526  0.80688294  1
  Ti  Ti13  1  0.06531692  0.88821942  0.68455375  1
  Ti  Ti14  1  0.11919773  0.20499364  0.00472143  1
  Ti  Ti15  1  0.32453978  0.68686205  0.89165723  1
  Ti  Ti16  1  0.83501858  0.31120234  0.31371050  1
  Ti  Ti17  1  0.22876336  0.16496915  0.59990908  1
  Ti  Ti18  1  0.54821610  0.17622438  0.76229844  1
  Ti  Ti19  1  0.58069997  0.52661429  0.32457570  1
  Ti  Ti20  1  0.90082754  0.06707890  0.15673976  1
  Ti  Ti21  1  0.78993494  0.73076522  0.52735623  1
  Ti  Ti22  1  0.85403152  0.06125055  0.81897578  1
  Ti  Ti23  1  0.28001157  0.87823187  0.42610059  1
  Ti  Ti24  1  0.01297135  0.77795214  0.93981134  1
  Ti  Ti25  1  0.65827666  0.27766390  0.00492859  1
  Ti  Ti26  1  0.21237133  0.87351722  0.12431442  1
  Ti  Ti27  1  0.20252958  0.63406241  0.61194079  1
  Ti  Ti28  1  0.87549622  0.53752554  0.05097928  1
  Ti  Ti29  1  0.68689594  0.78021699  0.84694913  1
  O  O30  1  0.97824569  0.92321155  0.84260808  1
  O  O31  1  0.21783783  0.79853826  0.27665208  1
  O  O32  1  0.80395367  0.91596436  0.15670039  1
  O  O33  1  0.64998431  0.20808403  0.35608312  1
  O  O34  1  0.40951784  0.75279343  0.75578034  1
  O  O35  1  0.40406373  0.20658030  0.64083560  1
  O  O36  1  0.79264640  0.21037779  0.13759108  1
  O  O37  1  0.24365702  0.55371203  0.78941327  1
  O  O38  1  0.70411257  0.62356394  0.15328836  1
  O  O39  1  0.53505911  0.13906362  0.09701611  1
  O  O40  1  0.48735657  0.03745022  0.83561625  1
  O  O41  1  0.14818264  0.24978348  0.45448540  1
  O  O42  1  0.63961508  0.58080953  0.82096933  1
  O  O43  1  0.22038061  0.03793118  0.43732808  1
  O  O44  1  0.61129344  0.66176961  0.44340361  1
  O  O45  1  0.25599647  0.11148615  0.95010480  1
  O  O46  1  0.90836677  0.38161660  0.73350921  1
  O  O47  1  0.05043672  0.92215645  0.07808186  1
  O  O48  1  0.76279698  0.89563341  0.43361362  1
  O  O49  1  0.73255804  0.94874271  0.86847207  1
  O  O50  1  0.50667550  0.39949007  0.41315539  1
  O  O51  1  0.40762636  0.18111082  0.38185990  1
  O  O52  1  0.93018813  0.80197175  0.60035411  1
  O  O53  1  0.17855884  0.72389509  0.00653021  1
  O  O54  1  0.63211522  0.11271320  0.58524190  1
  O  O55  1  0.99764383  0.55229623  0.91691027  1
  O  O56  1  0.44569380  0.86066595  0.48130123  1
  O  O57  1  0.12241096  0.27921981  0.69345439  1
  O  O58  1  0.32274647  0.30256436  0.20327716  1
  O  O59  1  0.57835339  0.74731631  0.98816376  1
  O  O60  1  0.92728744  0.43326158  0.16029464  1
  O  O61  1  0.96042835  0.14296162  0.95198413  1
  O  O62  1  0.15838256  0.35942166  0.95037150  1
  O  O63  1  0.08128894  0.49975835  0.62544783  1
  O  O64  1  0.12002196  0.75180479  0.77596727  1
  O  O65  1  0.88119201  0.67837943  0.36327593  1
  O  O66  1  0.73558209  0.43805851  0.96738861  1
  O  O67  1  0.08527363  0.17685252  0.18151253  1
  O  O68  1  0.51534671  0.29139330  0.90107127  1
  O  O69  1  0.89033013  0.09300270  0.32785528  1
  O  O70  1  0.73911462  0.44198736  0.33223030  1
  O  O71  1  0.17148390  0.03473863  0.68678389  1
  O  O72  1  0.94789969  0.69701672  0.13160709  1
  O  O73  1  0.61958324  0.35098518  0.65159562  1
  O  O74  1  0.98731748  0.41546362  0.38825105  1
  O  O75  1  0.72235470  0.18802958  0.84958819  1
  O  O76  1  0.88535968  0.05306724  0.64032782  1
  O  O77  1  0.36179107  0.87121220  0.00196122  1
  O  O78  1  0.83926858  0.72765216  0.90720571  1
  O  O79  1  0.42761343  0.57503831  0.24732919  1
  O  O80  1  0.19526907  0.81142142  0.56133082  1
  O  O81  1  0.79364945  0.56726349  0.60018826  1
  O  O82  1  0.13237906  0.61526617  0.43709975  1
  O  O83  1  0.40420385  0.55541544  0.98862582  1
  O  O84  1  0.56565654  0.38722062  0.14780965  1
  O  O85  1  0.65677378  0.78023547  0.66329889  1
  O  O86  1  0.85393352  0.26120798  0.49695117  1
  O  O87  1  0.29444555  0.03035126  0.18644851  1
  O  O88  1  0.36572886  0.60605003  0.55138074  1
  O  O89  1  0.17242904  0.52534161  0.18891767  1
