# generated using pymatgen
data_Al2O3
_symmetry_space_group_name_H-M   'P 1'
_cell_length_a   10.25309021
_cell_length_b   10.38015630
_cell_length_c   10.45870681
_cell_angle_alpha   93.30522630
_cell_angle_beta   87.28226865
_cell_angle_gamma   91.97061702
_symmetry_Int_Tables_number   1
_chemical_formula_structural   Al2O3
_chemical_formula_sum   'Al40 O60'
_cell_volume   1109.44555675
_cell_formula_units_Z   20
loop_
 _symmetry_equiv_pos_site_id
 _symmetry_equiv_pos_as_xyz
  1  'x, y, z'
loop_
 _atom_site_type_symbol
 _atom_site_label
 _atom_site_symmetry_multiplicity
 _atom_site_fract_x
 _atom_site_fract_y
 _atom_site_fract_z
 _atom_site_occupancy
  Al  Al0  1  0.09231473  0.32008998  0.55275195  1
  Al  Al1  1  0.67329611  0.19076489  0.48626241  1
  Al  Al2  1  0.03945578  0.77665292  0.54150989  1
  Al  Al3  1  0.06349816  0.45604758  0.84912522  1
  Al  Al4  1  0.72320962  0.74314861  0.45100358  1
  Al  Al5  1  0.29951498  0.35219438  0.75695948  1
  Al  Al6  1  0.42234343  0.32871111  0.48818297  1
  Al  Al7  1  0.02564976  0.06241869  0.74710835  1
  Al  Al8  1  0.19036155  0.41679146  0.08266982  1
  Al  Al9  1  0.71321357  0.58778393  0.89610955  1
  Al  Al10  1  0.30752405  0.63812522  0.21180920  1
  Al  Al11  1  0.49733087  0.16134830  0.93544734  1
  Al  Al12  1  0.57088719  0.12659091  0.26046811  1
  Al  Al13  1  0.71645401  0.02065331  0.65626292  1
  Al  Al14  1  0.44224285  0.60043645  0.91048944  1
  Al  Al15  1  0.88245970  0.05973399  0.03098430  1
  Al  Al16  1  0.33255818  0.08612321  0.64489687  1
  Al  Al17  1  0.17410010  0.74284080  0.96037684  1
  Al  Al18  1  0.33584188  0.92566944  0.88418651  1
  Al  Al19  1  0.50333523  0.83652088  0.63564914  1
  Al  Al20  1  0.57678147  0.27842606  0.71670220  1
  Al  Al21  1  0.03546366  0.77917192  0.25712117  1
  Al  Al22  1  0.03834111  0.46397553  0.34642370  1
  Al  Al23  1  0.07766746  0.16641951  0.26575909  1
  Al  Al24  1  0.28128261  0.93546880  0.33676990  1
  Al  Al25  1  0.08926983  0.03014119  0.50785829  1
  Al  Al26  1  0.83858026  0.02760211  0.32229718  1
  Al  Al27  1  0.51115504  0.43381014  0.09802863  1
  Al  Al28  1  0.81887392  0.23121872  0.85947507  1
  Al  Al29  1  0.51123037  0.55390042  0.56677714  1
  Al  Al30  1  0.59294086  0.54922298  0.31496278  1
  Al  Al31  1  0.62775646  0.86703850  0.92429121  1
  Al  Al32  1  0.54564480  0.84555980  0.26400545  1
  Al  Al33  1  0.84506219  0.43332677  0.64843524  1
  Al  Al34  1  0.17576399  0.16606346  0.93383634  1
  Al  Al35  1  0.78858601  0.29921547  0.18771505  1
  Al  Al36  1  0.32458311  0.12491080  0.15041223  1
  Al  Al37  1  0.92197175  0.54361264  0.13445276  1
  Al  Al38  1  0.76193019  0.79345072  0.12805118  1
  Al  Al39  1  0.23489070  0.60801334  0.69314959  1
  O  O40  1  0.18498013  0.24624855  0.12425768  1
  O  O41  1  0.35270138  0.51822195  0.78431018  1
  O  O42  1  0.78043842  0.55860149  0.74284205  1
  O  O43  1  0.41899753  0.68246898  0.63187629  1
  O  O44  1  0.91652034  0.36431038  0.79892336  1
  O  O45  1  0.96326958  0.43525547  0.51554698  1
  O  O46  1  0.12051132  0.30502074  0.37918912  1
  O  O47  1  0.04434143  0.17125476  0.61213679  1
  O  O48  1  0.48660599  0.23317750  0.11269670  1
  O  O49  1  0.68143100  0.71436123  0.28177620  1
  O  O50  1  0.42082324  0.24943895  0.81325941  1
  O  O51  1  0.26890142  0.02432039  0.49194605  1
  O  O52  1  0.76484109  0.04650301  0.49377159  1
  O  O53  1  0.15438414  0.42914668  0.68226536  1
  O  O54  1  0.04400202  0.92613829  0.63470494  1
  O  O55  1  0.51598432  0.21450362  0.40482170  1
  O  O56  1  0.38060348  0.93677699  0.71069186  1
  O  O57  1  0.31822777  0.08925987  0.98306602  1
  O  O58  1  0.58004946  0.48139211  0.94858884  1
  O  O59  1  0.14920291  0.66124941  0.56847785  1
  O  O60  1  0.42925661  0.02357907  0.24191289  1
  O  O61  1  0.16210191  0.89791532  0.91123965  1
  O  O62  1  0.19705308  0.04283480  0.23741645  1
  O  O63  1  0.84112584  0.08402781  0.76038885  1
  O  O64  1  0.64700306  0.23105967  0.85620306  1
  O  O65  1  0.57707004  0.83835353  0.47639832  1
  O  O66  1  0.65962508  0.58130117  0.47593348  1
  O  O67  1  0.87729754  0.76716192  0.50039952  1
  O  O68  1  0.11952931  0.84811890  0.39057579  1
  O  O69  1  0.51404472  0.99038078  0.92571877  1
  O  O70  1  0.66948850  0.98408161  0.26527350  1
  O  O71  1  0.47177126  0.57437372  0.20496839  1
  O  O72  1  0.65963291  0.42256206  0.19983424  1
  O  O73  1  0.79247717  0.91455358  0.99076868  1
  O  O74  1  0.96957300  0.62088919  0.28254929  1
  O  O75  1  0.92500621  0.39571782  0.22341569  1
  O  O76  1  0.89557014  0.86490359  0.22180982  1
  O  O77  1  0.43932770  0.48016997  0.42205138  1
  O  O78  1  0.18314086  0.33604858  0.89854128  1
  O  O79  1  0.59242316  0.81486668  0.09492557  1
  O  O80  1  0.34518759  0.49222658  0.03630330  1
  O  O81  1  0.04366796  0.48669019  0.02352074  1
  O  O82  1  0.50907771  0.39832434  0.62733560  1
  O  O83  1  0.73502434  0.20674244  0.31607346  1
  O  O84  1  0.56333189  0.12248330  0.62535904  1
  O  O85  1  0.16377182  0.73266183  0.13496093  1
  O  O86  1  0.37143328  0.79012272  0.29288882  1
  O  O87  1  0.99300119  0.07338361  0.38816108  1
  O  O88  1  0.19218940  0.50455857  0.24586098  1
  O  O89  1  0.00762576  0.11530331  0.92114557  1
  O  O90  1  0.12039741  0.62634405  0.83796116  1
  O  O91  1  0.35024214  0.74930955  0.93184326  1
  O  O92  1  0.79565538  0.21611335  0.03148137  1
  O  O93  1  0.64680717  0.88341027  0.72528991  1
  O  O94  1  0.20339951  0.10563537  0.76862361  1
  O  O95  1  0.81384837  0.63434203  0.04154656  1
  O  O96  1  0.59278655  0.70103895  0.87323731  1
  O  O97  1  0.73257201  0.30476511  0.60962596  1
  O  O98  1  0.30367847  0.25823495  0.59265816  1
  O  O99  1  0.93097945  0.11439442  0.18276546  1
