# generated using pymatgen
data_Ca3Bi3N5
_symmetry_space_group_name_H-M   'P 1'
_cell_length_a   6.54932544
_cell_length_b   7.22593651
_cell_length_c   9.35296862
_cell_angle_alpha   102.59757622
_cell_angle_beta   106.81293029
_cell_angle_gamma   99.85439718
_symmetry_Int_Tables_number   1
_chemical_formula_structural   Ca3Bi3N5
_chemical_formula_sum   'Ca6 Bi6 N10'
_cell_volume   400.30019607
_cell_formula_units_Z   2
loop_
 _symmetry_equiv_pos_site_id
 _symmetry_equiv_pos_as_xyz
  1  'x, y, z'
loop_
 _atom_site_type_symbol
 _atom_site_label
 _atom_site_symmetry_multiplicity
 _atom_site_fract_x
 _atom_site_fract_y
 _atom_site_fract_z
 _atom_site_occupancy
  Ca  Ca0  1  0.81916615  0.30155701  0.91077322  1
  Ca  Ca1  1  0.18083385  0.69844299  0.08922678  1
  Ca  Ca2  1  0.75550645  0.98218501  0.54470479  1
  Ca  Ca3  1  0.24449355  0.01781499  0.45529521  1
  Ca  Ca4  1  0.16696193  0.83927260  0.76146271  1
  Ca  Ca5  1  0.83303807  0.16072740  0.23853729  1
  Bi  Bi6  1  0.75814912  0.44581391  0.55709697  1
  Bi  Bi7  1  0.24185088  0.55418609  0.44290303  1
  Bi  Bi8  1  0.68194751  0.82438744  0.87234631  1
  Bi  Bi9  1  0.31805249  0.17561256  0.12765369  1
  Bi  Bi10  1  0.69126288  0.65415958  0.22151848  1
  Bi  Bi11  1  0.30873712  0.34584042  0.77848152  1
  N  N12  1  0.03677797  0.14013470  0.79094284  1
  N  N13  1  0.96322203  0.85986530  0.20905716  1
  N  N14  1  0.93864987  0.68754149  0.47896942  1
  N  N15  1  0.06135013  0.31245851  0.52103058  1
  N  N16  1  0.88179701  0.60940969  0.82310029  1
  N  N17  1  0.11820299  0.39059031  0.17689971  1
  N  N18  1  0.47737965  0.89931205  0.65673046  1
  N  N19  1  0.52262035  0.10068795  0.34326954  1
  N  N20  1  0.38940168  0.66703891  0.91510630  1
  N  N21  1  0.61059832  0.33296109  0.08489370  1
