# generated using pymatgen
data_Mg7SnN6
_symmetry_space_group_name_H-M   'P 1'
_cell_length_a   5.61336890
_cell_length_b   8.57458545
_cell_length_c   8.57458641
_cell_angle_alpha   76.80783539
_cell_angle_beta   70.89344615
_cell_angle_gamma   70.89345101
_symmetry_Int_Tables_number   1
_chemical_formula_structural   Mg7SnN6
_chemical_formula_sum   'Mg14 Sn2 N12'
_cell_volume   365.09170399
_cell_formula_units_Z   2
loop_
 _symmetry_equiv_pos_site_id
 _symmetry_equiv_pos_as_xyz
  1  'x, y, z'
loop_
 _atom_site_type_symbol
 _atom_site_label
 _atom_site_symmetry_multiplicity
 _atom_site_fract_x
 _atom_site_fract_y
 _atom_site_fract_z
 _atom_site_occupancy
  Mg  Mg0  1  0.25755192  0.97035860  0.02964140  1
  Mg  Mg1  1  0.74244808  0.02964140  0.97035860  1
  Mg  Mg2  1  0.24244808  0.47035860  0.52964140  1
  Mg  Mg3  1  0.75755192  0.52964140  0.47035860  1
  Mg  Mg4  1  0.62812473  0.14192686  0.63790960  1
  Mg  Mg5  1  0.59203781  0.63790960  0.14192686  1
  Mg  Mg6  1  0.87187527  0.86209040  0.35807314  1
  Mg  Mg7  1  0.90796219  0.35807314  0.86209040  1
  Mg  Mg8  1  0.37187527  0.85807314  0.36209040  1
  Mg  Mg9  1  0.40796219  0.36209040  0.85807314  1
  Mg  Mg10  1  0.12812473  0.13790960  0.64192686  1
  Mg  Mg11  1  0.09203781  0.64192686  0.13790960  1
  Mg  Mg12  1  0.25000000  0.25000000  0.25000000  1
  Mg  Mg13  1  0.75000000  0.75000000  0.75000000  1
  Sn  Sn14  1  0.75000000  0.25000000  0.25000000  1
  Sn  Sn15  1  0.25000000  0.75000000  0.75000000  1
  N  N16  1  0.07888319  0.05067317  0.27146178  1
  N  N17  1  0.59898087  0.27146178  0.05067317  1
  N  N18  1  0.42111681  0.22853822  0.44932683  1
  N  N19  1  0.90101913  0.44932683  0.22853822  1
  N  N20  1  0.92111681  0.94932683  0.72853822  1
  N  N21  1  0.40101913  0.72853822  0.94932683  1
  N  N22  1  0.57888319  0.77146178  0.55067317  1
  N  N23  1  0.09898087  0.55067317  0.77146178  1
  N  N24  1  0.77508472  0.33841932  0.66158068  1
  N  N25  1  0.22491528  0.66158068  0.33841932  1
  N  N26  1  0.72491528  0.83841932  0.16158068  1
  N  N27  1  0.27508472  0.16158068  0.83841932  1
