# generated using pymatgen
data_BeO
_symmetry_space_group_name_H-M   'P 1'
_cell_length_a   8.89395215
_cell_length_b   9.89509095
_cell_length_c   9.13312190
_cell_angle_alpha   89.10999247
_cell_angle_beta   92.04449382
_cell_angle_gamma   89.15324446
_symmetry_Int_Tables_number   1
_chemical_formula_structural   BeO
_chemical_formula_sum   'Be50 O50'
_cell_volume   803.07065411
_cell_formula_units_Z   50
loop_
 _symmetry_equiv_pos_site_id
 _symmetry_equiv_pos_as_xyz
  1  'x, y, z'
loop_
 _atom_site_type_symbol
 _atom_site_label
 _atom_site_symmetry_multiplicity
 _atom_site_fract_x
 _atom_site_fract_y
 _atom_site_fract_z
 _atom_site_occupancy
  Be  Be0  1  0.66313380  0.10862348  0.51273584  1
  Be  Be1  1  0.30279040  0.98740137  0.84041728  1
  Be  Be2  1  0.50323523  0.63533533  0.16985675  1
  Be  Be3  1  0.75928918  0.44899389  0.93570723  1
  Be  Be4  1  0.12051226  0.88133211  0.67556026  1
  Be  Be5  1  0.44329686  0.79330077  0.79149359  1
  Be  Be6  1  0.61669788  0.42408321  0.39851709  1
  Be  Be7  1  0.45688604  0.29345801  0.59132023  1
  Be  Be8  1  0.96477146  0.86079763  0.93502046  1
  Be  Be9  1  0.12959938  0.89712890  0.40074714  1
  Be  Be10  1  0.89685403  0.00046792  0.38243671  1
  Be  Be11  1  0.77420868  0.19089777  0.93992317  1
  Be  Be12  1  0.10891671  0.61035987  0.28484230  1
  Be  Be13  1  0.91948181  0.01976238  0.64996566  1
  Be  Be14  1  0.49907102  0.56349116  0.88761655  1
  Be  Be15  1  0.01994810  0.88762002  0.16616694  1
  Be  Be16  1  0.42256756  0.88602869  0.28735620  1
  Be  Be17  1  0.85870539  0.45510976  0.19790803  1
  Be  Be18  1  0.66332098  0.96607375  0.77920714  1
  Be  Be19  1  0.02366386  0.32766471  0.01361731  1
  Be  Be20  1  0.72757913  0.36480268  0.68667291  1
  Be  Be21  1  0.34036691  0.50719092  0.37415807  1
  Be  Be22  1  0.90895747  0.71809318  0.32431975  1
  Be  Be23  1  0.05284027  0.11100593  0.83821358  1
  Be  Be24  1  0.55113433  0.37358132  0.11542567  1
  Be  Be25  1  0.99239985  0.45617603  0.76336907  1
  Be  Be26  1  0.71328765  0.72271726  0.92387913  1
  Be  Be27  1  0.39312582  0.98016118  0.51910806  1
  Be  Be28  1  0.26383593  0.49545586  0.05839411  1
  Be  Be29  1  0.40833400  0.24276322  0.35456785  1
  Be  Be30  1  0.95313528  0.23111553  0.51582817  1
  Be  Be31  1  0.98792976  0.61271305  0.00135381  1
  Be  Be32  1  0.29789727  0.21528838  0.03078044  1
  Be  Be33  1  0.09526290  0.65547210  0.54411779  1
  Be  Be34  1  0.71498456  0.87201236  0.17168844  1
  Be  Be35  1  0.21907434  0.62924655  0.79471759  1
  Be  Be36  1  0.90383206  0.47172318  0.47412516  1
  Be  Be37  1  0.19234498  0.42518355  0.53903357  1
  Be  Be38  1  0.24765241  0.77288592  0.03371130  1
  Be  Be39  1  0.26063405  0.34490121  0.81228629  1
  Be  Be40  1  0.54044011  0.68799996  0.46427306  1
  Be  Be41  1  0.58858720  0.10101576  0.07530077  1
  Be  Be42  1  0.48712896  0.84312982  0.06481726  1
  Be  Be43  1  0.73850950  0.25711520  0.27904731  1
  Be  Be44  1  0.74246572  0.60491765  0.69050152  1
  Be  Be45  1  0.53722409  0.23516603  0.86382133  1
  Be  Be46  1  0.12899630  0.34570275  0.27471480  1
  Be  Be47  1  0.90114583  0.08526052  0.11055831  1
  Be  Be48  1  0.69125681  0.84583487  0.50193374  1
  Be  Be49  1  0.18784574  0.08348575  0.27486137  1
  O  O50  1  0.96783966  0.17531420  0.67147433  1
  O  O51  1  0.94524779  0.60341804  0.18300969  1
  O  O52  1  0.31077703  0.93740997  0.67298534  1
  O  O53  1  0.80875103  0.15063328  0.41920077  1
  O  O54  1  0.88897767  0.72049843  0.90873108  1
  O  O55  1  0.50999521  0.56996220  0.35208771  1
  O  O56  1  0.98752885  0.33749781  0.17684428  1
  O  O57  1  0.95261042  0.17341192  0.96255412  1
  O  O58  1  0.79199531  0.86006563  0.34584803  1
  O  O59  1  0.73098964  0.98552307  0.61621994  1
  O  O60  1  0.94860434  0.62236816  0.45746857  1
  O  O61  1  0.34200884  0.35757027  0.46911518  1
  O  O62  1  0.15905652  0.44686811  0.71471598  1
  O  O63  1  0.78831586  0.41764197  0.35707411  1
  O  O64  1  0.50623049  0.84837718  0.44460433  1
  O  O65  1  0.22363199  0.48940353  0.23148076  1
  O  O66  1  0.61576641  0.82558353  0.81415343  1
  O  O67  1  0.02109722  0.94869018  0.51955516  1
  O  O68  1  0.48539237  0.12573200  0.49598669  1
  O  O69  1  0.00505280  0.95471465  0.79150276  1
  O  O70  1  0.27917680  0.97087532  0.36497897  1
  O  O71  1  0.37476512  0.76107252  0.17809965  1
  O  O72  1  0.85414766  0.47116213  0.65285285  1
  O  O73  1  0.85479766  0.92642261  0.07857811  1
  O  O74  1  0.47876390  0.23342177  0.03051802  1
  O  O75  1  0.26215492  0.21465178  0.23692115  1
  O  O76  1  0.44837569  0.51415839  0.04933141  1
  O  O77  1  0.22325665  0.58296892  0.46954813  1
  O  O78  1  0.17852814  0.62364791  0.97173643  1
  O  O79  1  0.11373030  0.86824841  0.03673169  1
  O  O80  1  0.01935249  0.04126297  0.25304137  1
  O  O81  1  0.63735621  0.08391064  0.88544941  1
  O  O82  1  0.55299845  0.30948054  0.28483378  1
  O  O83  1  0.70375786  0.31421775  0.84459580  1
  O  O84  1  0.36976522  0.86265124  0.93087438  1
  O  O85  1  0.12046101  0.72511370  0.68801817  1
  O  O86  1  0.39375261  0.64089720  0.78011510  1
  O  O87  1  0.61438915  0.35636006  0.56342744  1
  O  O88  1  0.41038554  0.29108813  0.75419018  1
  O  O89  1  0.63351100  0.73688848  0.09036982  1
  O  O90  1  0.54410104  0.96639447  0.16523054  1
  O  O91  1  0.74562817  0.16446571  0.13153783  1
  O  O92  1  0.68082196  0.69339227  0.56534823  1
  O  O93  1  0.21107609  0.35204166  0.97890102  1
  O  O94  1  0.22949378  0.11378435  0.90132645  1
  O  O95  1  0.66841530  0.57042614  0.84500138  1
  O  O96  1  0.94414403  0.45755994  0.92341546  1
  O  O97  1  0.05146703  0.35114294  0.45663949  1
  O  O98  1  0.71389999  0.43265637  0.09432314  1
  O  O99  1  0.07763193  0.78302911  0.30058720  1
