# generated using pymatgen
data_Cr2O3
_symmetry_space_group_name_H-M   'P 1'
_cell_length_a   10.06031330
_cell_length_b   10.34307874
_cell_length_c   10.12936492
_cell_angle_alpha   98.43008845
_cell_angle_beta   94.56467729
_cell_angle_gamma   85.84753379
_symmetry_Int_Tables_number   1
_chemical_formula_structural   Cr2O3
_chemical_formula_sum   'Cr32 O48'
_cell_volume   1037.33816036
_cell_formula_units_Z   16
loop_
 _symmetry_equiv_pos_site_id
 _symmetry_equiv_pos_as_xyz
  1  'x, y, z'
loop_
 _atom_site_type_symbol
 _atom_site_label
 _atom_site_symmetry_multiplicity
 _atom_site_fract_x
 _atom_site_fract_y
 _atom_site_fract_z
 _atom_site_occupancy
  Cr  Cr0  1  0.21466096  0.55530410  0.09805624  1
  Cr  Cr1  1  0.68375118  0.91730572  0.64548062  1
  Cr  Cr2  1  0.28950247  0.44472362  0.80140729  1
  Cr  Cr3  1  0.80028182  0.15660161  0.74734930  1
  Cr  Cr4  1  0.74263412  0.31618485  0.40064512  1
  Cr  Cr5  1  0.83446973  0.60524685  0.86313403  1
  Cr  Cr6  1  0.12108509  0.82215571  0.12528085  1
  Cr  Cr7  1  0.84297278  0.57613423  0.51776268  1
  Cr  Cr8  1  0.28118122  0.87751971  0.87216298  1
  Cr  Cr9  1  0.68871679  0.79328527  0.36575744  1
  Cr  Cr10  1  0.03454487  0.72505094  0.38463648  1
  Cr  Cr11  1  0.06813634  0.63664898  0.72130401  1
  Cr  Cr12  1  0.49207580  0.07505271  0.40030064  1
  Cr  Cr13  1  0.56662085  0.90473548  0.88650797  1
  Cr  Cr14  1  0.76143307  0.33769960  0.02965707  1
  Cr  Cr15  1  0.43309132  0.12137298  0.74234291  1
  Cr  Cr16  1  0.30638511  0.52881360  0.54467935  1
  Cr  Cr17  1  0.39118579  0.31356764  0.29675657  1
  Cr  Cr18  1  0.29654891  0.31395465  0.00406842  1
  Cr  Cr19  1  0.32154986  0.80584677  0.58280470  1
  Cr  Cr20  1  0.62212584  0.40202714  0.69748328  1
  Cr  Cr21  1  0.04641589  0.02358673  0.61999913  1
  Cr  Cr22  1  0.59513522  0.66599275  0.64404910  1
  Cr  Cr23  1  0.64599587  0.10936543  0.17197474  1
  Cr  Cr24  1  0.34407107  0.07091215  0.11059664  1
  Cr  Cr25  1  0.00301802  0.33806031  0.60209434  1
  Cr  Cr26  1  0.17247514  0.04471518  0.40418688  1
  Cr  Cr27  1  0.85132919  0.86049966  0.97505298  1
  Cr  Cr28  1  0.38563861  0.66545460  0.32493542  1
  Cr  Cr29  1  0.85615608  0.58818739  0.14310676  1
  Cr  Cr30  1  0.55992333  0.53940780  0.96984903  1
  Cr  Cr31  1  0.05143053  0.14929660  0.90684028  1
  O  O32  1  0.22246539  0.69378622  0.43754682  1
  O  O33  1  0.67964881  0.50244227  0.12262406  1
  O  O34  1  0.61856354  0.35885212  0.88872903  1
  O  O35  1  0.91308454  0.51847530  0.69568729  1
  O  O36  1  0.43384959  0.23811000  0.11950550  1
  O  O37  1  0.43964826  0.14454260  0.57002042  1
  O  O38  1  0.74729987  0.26671060  0.62340074  1
  O  O39  1  0.18815980  0.17956177  0.04217507  1
  O  O40  1  0.64544047  0.57221489  0.80718610  1
  O  O41  1  0.04739263  0.65122575  0.18122258  1
  O  O42  1  0.16083441  0.45776603  0.63857288  1
  O  O43  1  0.99289212  0.68878623  0.55778960  1
  O  O44  1  0.15037111  0.43998155  0.93658854  1
  O  O45  1  0.24434525  0.72516893  0.72804676  1
  O  O46  1  0.24356796  0.98446188  0.57348646  1
  O  O47  1  0.63625281  0.96127588  0.46064311  1
  O  O48  1  0.77830400  0.71124858  0.03081893  1
  O  O49  1  0.31545210  0.26104390  0.81793807  1
  O  O50  1  0.40401505  0.02506366  0.91334367  1
  O  O51  1  0.99138349  0.72121851  0.88666631  1
  O  O52  1  0.50860694  0.00500786  0.20655185  1
  O  O53  1  0.84211687  0.66542334  0.33259758  1
  O  O54  1  0.71485285  0.74253129  0.54127730  1
  O  O55  1  0.56556847  0.22801101  0.35067173  1
  O  O56  1  0.11499896  0.98297297  0.80780972  1
  O  O57  1  0.31382233  0.48012326  0.25794797  1
  O  O58  1  0.44478430  0.64913408  0.51730071  1
  O  O59  1  0.91661032  0.40535845  0.44476537  1
  O  O60  1  0.49950090  0.85784379  0.68847853  1
  O  O61  1  0.62813199  0.07285179  0.77259290  1
  O  O62  1  0.85954020  0.17510373  0.92826361  1
  O  O63  1  0.75889742  0.24977511  0.19277707  1
  O  O64  1  0.69044557  0.97706818  0.02277111  1
  O  O65  1  0.73041058  0.81269661  0.80346216  1
  O  O66  1  0.03788663  0.91393484  0.42851818  1
  O  O67  1  0.30538689  0.13991333  0.31412840  1
  O  O68  1  0.05086319  0.16542553  0.49347499  1
  O  O69  1  0.46545007  0.78137143  0.92532897  1
  O  O70  1  0.87769874  0.46546203  0.97675619  1
  O  O71  1  0.85511410  0.00085800  0.65746565  1
  O  O72  1  0.38091815  0.48742426  0.99247873  1
  O  O73  1  0.28421464  0.71689744  0.16999433  1
  O  O74  1  0.96315266  0.91543729  0.12750379  1
  O  O75  1  0.99329159  0.20215461  0.73351035  1
  O  O76  1  0.66635729  0.49451005  0.54409652  1
  O  O77  1  0.53766593  0.73114214  0.28168584  1
  O  O78  1  0.42879046  0.45308085  0.68123227  1
  O  O79  1  0.23441585  0.92278031  0.05341498  1
