# generated using pymatgen
data_Al2O3
_symmetry_space_group_name_H-M   'P 1'
_cell_length_a   10.23568195
_cell_length_b   10.52520392
_cell_length_c   10.41323741
_cell_angle_alpha   86.53337244
_cell_angle_beta   87.65278521
_cell_angle_gamma   89.50508827
_symmetry_Int_Tables_number   1
_chemical_formula_structural   Al2O3
_chemical_formula_sum   'Al40 O60'
_cell_volume   1118.83191396
_cell_formula_units_Z   20
loop_
 _symmetry_equiv_pos_site_id
 _symmetry_equiv_pos_as_xyz
  1  'x, y, z'
loop_
 _atom_site_type_symbol
 _atom_site_label
 _atom_site_symmetry_multiplicity
 _atom_site_fract_x
 _atom_site_fract_y
 _atom_site_fract_z
 _atom_site_occupancy
  Al  Al0  1  0.83617848  0.50437205  0.63975088  1
  Al  Al1  1  0.75594298  0.90925849  0.32966571  1
  Al  Al2  1  0.46732500  0.81203203  0.81738469  1
  Al  Al3  1  0.04372278  0.80031484  0.11236072  1
  Al  Al4  1  0.84306998  0.57667675  0.10877346  1
  Al  Al5  1  0.31994850  0.95679706  0.64234590  1
  Al  Al6  1  0.09805418  0.60814248  0.57709481  1
  Al  Al7  1  0.97970164  0.31299084  0.55999344  1
  Al  Al8  1  0.51087937  0.24282413  0.25986558  1
  Al  Al9  1  0.72980849  0.31159583  0.02608989  1
  Al  Al10  1  0.39448981  0.51864778  0.42493957  1
  Al  Al11  1  0.26629394  0.39236510  0.70711238  1
  Al  Al12  1  0.68484091  0.26180785  0.73694509  1
  Al  Al13  1  0.67117024  0.75538952  0.53231124  1
  Al  Al14  1  0.62997881  0.02321734  0.05663605  1
  Al  Al15  1  0.97540480  0.83129268  0.52867214  1
  Al  Al16  1  0.36458859  0.10543461  0.10830273  1
  Al  Al17  1  0.91470958  0.06200276  0.76601448  1
  Al  Al18  1  0.51503977  0.49325454  0.89850696  1
  Al  Al19  1  0.44852202  0.99808170  0.35601115  1
  Al  Al20  1  0.70050489  0.93154066  0.76952247  1
  Al  Al21  1  0.22004171  0.55958359  0.88547969  1
  Al  Al22  1  0.98310028  0.47303726  0.90135680  1
  Al  Al23  1  0.15650888  0.92977067  0.28233948  1
  Al  Al24  1  0.34838523  0.72605546  0.10912551  1
  Al  Al25  1  0.42323690  0.23244182  0.54500919  1
  Al  Al26  1  0.10077951  0.21037679  0.98693890  1
  Al  Al27  1  0.55638527  0.48011382  0.19545421  1
  Al  Al28  1  0.95434463  0.74406060  0.84508454  1
  Al  Al29  1  0.95680357  0.09226831  0.43897820  1
  Al  Al30  1  0.88080289  0.07095209  0.15642210  1
  Al  Al31  1  0.56842037  0.72416744  0.29134958  1
  Al  Al32  1  0.36748326  0.73729439  0.53934392  1
  Al  Al33  1  0.43590361  0.14189483  0.81494478  1
  Al  Al34  1  0.20356784  0.93491850  0.91661479  1
  Al  Al35  1  0.64783188  0.73932640  0.01302699  1
  Al  Al36  1  0.29636975  0.42564585  0.12612870  1
  Al  Al37  1  0.16387655  0.15386258  0.70757533  1
  Al  Al38  1  0.00667621  0.34838550  0.24872029  1
  Al  Al39  1  0.90098008  0.62116432  0.34809010  1
  O  O40  1  0.01596974  0.95382974  0.18231823  1
  O  O41  1  0.15856294  0.41811849  0.22763488  1
  O  O42  1  0.74135852  0.10126101  0.76517425  1
  O  O43  1  0.96947813  0.11966672  0.60770781  1
  O  O44  1  0.49217278  0.15290579  0.41407165  1
  O  O45  1  0.81153542  0.33438189  0.63992189  1
  O  O46  1  0.16505753  0.53272241  0.72274890  1
  O  O47  1  0.35206324  0.89956644  0.48238320  1
  O  O48  1  0.64717745  0.32687109  0.17596503  1
  O  O49  1  0.01718289  0.70402227  0.43276558  1
  O  O50  1  0.22101055  0.07909382  0.00973254  1
  O  O51  1  0.12166995  0.30884930  0.64713553  1
  O  O52  1  0.99206916  0.25592597  0.40060966  1
  O  O53  1  0.66947219  0.60272212  0.14942710  1
  O  O54  1  0.33815329  0.82965407  0.95238079  1
  O  O55  1  0.81110553  0.87921947  0.50290684  1
  O  O56  1  0.52834619  0.07577024  0.19746548  1
  O  O57  1  0.85823445  0.42861884  0.02207316  1
  O  O58  1  0.81671395  0.70183937  0.97087642  1
  O  O59  1  0.03096555  0.74569222  0.66865346  1
  O  O60  1  0.30346088  0.01410458  0.25680675  1
  O  O61  1  0.02189011  0.15124479  0.85192606  1
  O  O62  1  0.51708511  0.79627160  0.13460910  1
  O  O63  1  0.87134127  0.89781709  0.77944754  1
  O  O64  1  0.73197717  0.60736525  0.57353732  1
  O  O65  1  0.49010725  0.11408037  0.97205088  1
  O  O66  1  0.88777476  0.54261033  0.78421275  1
  O  O67  1  0.12617165  0.37820218  0.94461069  1
  O  O68  1  0.20217675  0.79373842  0.18905384  1
  O  O69  1  0.29011490  0.23290539  0.79940111  1
  O  O70  1  0.76637942  0.14524033  0.03295603  1
  O  O71  1  0.36542814  0.39259822  0.55600283  1
  O  O72  1  0.42502055  0.61061717  0.25767659  1
  O  O73  1  0.88292363  0.47304918  0.26851496  1
  O  O74  1  0.83229367  0.06850036  0.32931365  1
  O  O75  1  0.99579361  0.21322343  0.13461596  1
  O  O76  1  0.05396014  0.85428082  0.94894916  1
  O  O77  1  0.26030248  0.62010527  0.49062942  1
  O  O78  1  0.48665657  0.39829826  0.33894186  1
  O  O79  1  0.06845961  0.95802686  0.43498430  1
  O  O80  1  0.50962543  0.66500546  0.46948637  1
  O  O81  1  0.44207792  0.98701766  0.75837350  1
  O  O82  1  0.27754346  0.58701361  0.04208964  1
  O  O83  1  0.52944660  0.22741710  0.68252316  1
  O  O84  1  0.34746215  0.77569034  0.69988986  1
  O  O85  1  0.64491133  0.36147502  0.87452497  1
  O  O86  1  0.37009562  0.47723819  0.81858761  1
  O  O87  1  0.75568487  0.93579502  0.15400433  1
  O  O88  1  0.54599314  0.66288214  0.89702519  1
  O  O89  1  0.74382984  0.72274742  0.34624872  1
  O  O90  1  0.17961228  0.98315652  0.75113491  1
  O  O91  1  0.61238469  0.82658826  0.68081493  1
  O  O92  1  0.97862571  0.48774079  0.53137273  1
  O  O93  1  0.46885092  0.45089280  0.05896561  1
  O  O94  1  0.29363661  0.12263642  0.58212795  1
  O  O95  1  0.94513528  0.68470490  0.18503345  1
  O  O96  1  0.62819319  0.89915825  0.92750553  1
  O  O97  1  0.05802272  0.62042363  0.93014478  1
  O  O98  1  0.35753189  0.26109404  0.16605930  1
  O  O99  1  0.58329308  0.88551098  0.37508978  1
