# generated using pymatgen
data_Al2SiO5
_symmetry_space_group_name_H-M   'P 1'
_cell_length_a   5.70603248
_cell_length_b   15.39899354
_cell_length_c   11.17900526
_cell_angle_alpha   46.49846021
_cell_angle_beta   90.00000000
_cell_angle_gamma   90.00000000
_symmetry_Int_Tables_number   1
_chemical_formula_structural   Al2SiO5
_chemical_formula_sum   'Al16 Si8 O40'
_cell_volume   712.49343594
_cell_formula_units_Z   8
loop_
 _symmetry_equiv_pos_site_id
 _symmetry_equiv_pos_as_xyz
  1  'x, y, z'
loop_
 _atom_site_type_symbol
 _atom_site_label
 _atom_site_symmetry_multiplicity
 _atom_site_fract_x
 _atom_site_fract_y
 _atom_site_fract_z
 _atom_site_occupancy
  Al  Al0  1  0.00234215  0.00082210  0.00307555  1
  Al  Al1  1  0.00148332  0.49604079  0.99005911  1
  Al  Al2  1  -0.00000424  0.50455996  0.48645581  1
  Al  Al3  1  0.25000000  0.43096473  0.30353052  1
  Al  Al4  1  0.25000000  0.26159696  0.80075655  1
  Al  Al5  1  0.25000000  0.75144739  0.82966494  1
  Al  Al6  1  0.50000424  0.50455996  0.48645581  1
  Al  Al7  1  0.50734654  0.99583161  0.50843698  1
  Al  Al8  1  0.49765785  0.00082210  0.00307555  1
  Al  Al9  1  0.49851668  0.49604079  0.99005911  1
  Al  Al10  1  0.75000000  0.23881171  0.18916066  1
  Al  Al11  1  0.75000000  0.06642145  0.69676287  1
  Al  Al12  1  0.75000000  0.75032049  0.32079295  1
  Al  Al13  1  0.75000000  0.57364981  0.67395251  1
  Al  Al14  1  0.75000000  0.05034790  0.20327278  1
  Al  Al15  1  0.99265346  0.99583161  0.50843698  1
  Si  Si16  1  0.25000000  0.94827253  0.80631314  1
  Si  Si17  1  0.25000000  0.45357988  0.78678509  1
  Si  Si18  1  0.25000000  0.24794138  0.29520629  1
  Si  Si19  1  0.25000000  0.75581152  0.29193491  1
  Si  Si20  1  0.25000000  0.93482620  0.30867364  1
  Si  Si21  1  0.75000000  0.54974292  0.18236640  1
  Si  Si22  1  0.75000000  0.24910309  0.70176620  1
  Si  Si23  1  0.75000000  0.74002193  0.82048495  1
  O  O24  1  0.01198933  0.00137513  0.82489937  1
  O  O25  1  0.01490569  0.50799987  0.80499271  1
  O  O26  1  0.01557456  0.17270210  0.32167542  1
  O  O27  1  0.01418559  0.68230614  0.32239005  1
  O  O28  1  0.25000000  0.11017463  0.90599164  1
  O  O29  1  0.25000000  0.00275328  0.61316466  1
  O  O30  1  0.25000000  0.60534385  0.90997006  1
  O  O31  1  0.25000000  0.31055113  0.90327631  1
  O  O32  1  0.25000000  0.50804744  0.59688536  1
  O  O33  1  0.25000000  0.80396393  0.92839200  1
  O  O34  1  0.25000000  0.27952445  0.40660530  1
  O  O35  1  0.25000000  0.38180868  0.09951125  1
  O  O36  1  0.25000000  0.88781424  0.10124552  1
  O  O37  1  0.25000000  0.79261307  0.40079845  1
  O  O38  1  0.25000000  0.48890164  0.39446319  1
  O  O39  1  0.25000000  0.96277101  0.42738473  1
  O  O40  1  0.48442544  0.17270210  0.32167542  1
  O  O41  1  0.48801067  0.00137513  0.82489937  1
  O  O42  1  0.48581441  0.68230614  0.32239005  1
  O  O43  1  0.48509431  0.50799987  0.80499271  1
  O  O44  1  0.51248731  0.49190526  0.17608646  1
  O  O45  1  0.51247305  0.32487480  0.66940855  1
  O  O46  1  0.48511576  0.99475765  0.18855210  1
  O  O47  1  0.51683175  0.81698573  0.71185356  1
  O  O48  1  0.75000000  0.20237274  0.07537303  1
  O  O49  1  0.75000000  0.01557933  0.59919750  1
  O  O50  1  0.75000000  0.39068990  0.08507901  1
  O  O51  1  0.75000000  0.21848435  0.58955035  1
  O  O52  1  0.75000000  0.51664387  0.35671924  1
  O  O53  1  0.75000000  0.51180448  0.58392385  1
  O  O54  1  0.75000000  0.11520715  0.89688447  1
  O  O55  1  0.75000000  0.69379340  0.00607010  1
  O  O56  1  0.75000000  0.89429378  0.11541489  1
  O  O57  1  0.75000000  0.72482501  0.49767977  1
  O  O58  1  0.75000000  0.61090087  0.87095737  1
  O  O59  1  0.75000000  0.98795556  0.40826718  1
  O  O60  1  0.98751269  0.49190526  0.17608646  1
  O  O61  1  0.98752695  0.32487480  0.66940855  1
  O  O62  1  0.01488424  0.99475765  0.18855210  1
  O  O63  1  0.98316825  0.81698573  0.71185356  1
