# generated using pymatgen
data_Cs3Mo2N5
_symmetry_space_group_name_H-M   'P 1'
_cell_length_a   10.97350221
_cell_length_b   13.79741879
_cell_length_c   10.04661813
_cell_angle_alpha   89.99946523
_cell_angle_beta   62.75773392
_cell_angle_gamma   128.95270343
_symmetry_Int_Tables_number   1
_chemical_formula_structural   Cs3Mo2N5
_chemical_formula_sum   'Cs12 Mo8 N20'
_cell_volume   956.27318349
_cell_formula_units_Z   4
loop_
 _symmetry_equiv_pos_site_id
 _symmetry_equiv_pos_as_xyz
  1  'x, y, z'
loop_
 _atom_site_type_symbol
 _atom_site_label
 _atom_site_symmetry_multiplicity
 _atom_site_fract_x
 _atom_site_fract_y
 _atom_site_fract_z
 _atom_site_occupancy
  Cs  Cs0  1  0.58859478  0.71563742  0.94615480  1
  Cs  Cs1  1  0.41141325  0.28436572  0.53474668  1
  Cs  Cs2  1  0.84268173  0.62703962  0.06911587  1
  Cs  Cs3  1  0.15730379  0.37294339  0.91180306  1
  Cs  Cs4  1  0.52404347  0.17607850  0.80568193  1
  Cs  Cs5  1  0.47595052  0.82391334  0.32972749  1
  Cs  Cs6  1  0.82812992  0.15204158  0.40363732  1
  Cs  Cs7  1  0.17187726  0.84796775  0.23176569  1
  Cs  Cs8  1  0.00000426  0.00000063  0.51666705  1
  Cs  Cs9  1  0.00000532  0.50000087  0.76666439  1
  Cs  Cs10  1  0.99999520  0.49999345  0.28025561  1
  Cs  Cs11  1  0.99999334  0.99999326  0.03025631  1
  Mo  Mo12  1  0.24539014  0.42985530  0.44155824  1
  Mo  Mo13  1  0.75461560  0.57015344  0.68694978  1
  Mo  Mo14  1  0.61430580  0.68445970  0.50710243  1
  Mo  Mo15  1  0.38569175  0.31554456  0.12140653  1
  Mo  Mo16  1  0.44317370  0.82453616  0.73849106  1
  Mo  Mo17  1  0.55681127  0.17545525  0.18166698  1
  Mo  Mo18  1  0.20591709  0.88136549  0.60711869  1
  Mo  Mo19  1  0.79409476  0.11863606  0.81303564  1
  N  N20  1  0.28102539  0.54894977  0.32039280  1
  N  N21  1  0.71897134  0.45104904  0.60141780  1
  N  N22  1  0.81687482  0.76792219  0.30246920  1
  N  N23  1  0.18312484  0.23207588  0.11933795  1
  N  N24  1  0.07983142  0.91055828  0.75456497  1
  N  N25  1  0.92016652  0.08944321  0.83439629  1
  N  N26  1  0.74128981  0.33073225  0.17383538  1
  N  N27  1  0.25871310  0.66927174  0.91512595  1
  N  N28  1  0.33919991  0.36314274  0.30609839  1
  N  N29  1  0.66079991  0.63685841  0.64529494  1
  N  N30  1  0.38708062  0.52393850  0.53215694  1
  N  N31  1  0.61292097  0.47606243  0.91923988  1
  N  N32  1  0.32958965  0.85839556  0.67157396  1
  N  N33  1  0.67041176  0.14160554  0.00115802  1
  N  N34  1  0.38720339  0.02881192  0.39276504  1
  N  N35  1  0.61279985  0.97119376  0.77996373  1
  N  N36  1  0.59720211  0.81389099  0.55444934  1
  N  N37  1  0.40279824  0.18611406  0.15165029  1
  N  N38  1  0.03057998  0.71668761  0.58776256  1
  N  N39  1  0.96942341  0.28331463  0.61834003  1
