# generated using pymatgen
data_Al2O3
_symmetry_space_group_name_H-M   'P 1'
_cell_length_a   10.49774120
_cell_length_b   10.06989607
_cell_length_c   10.97976972
_cell_angle_alpha   77.14738001
_cell_angle_beta   86.23373202
_cell_angle_gamma   86.90811250
_symmetry_Int_Tables_number   1
_chemical_formula_structural   Al2O3
_chemical_formula_sum   'Al40 O60'
_cell_volume   1128.23697471
_cell_formula_units_Z   20
loop_
 _symmetry_equiv_pos_site_id
 _symmetry_equiv_pos_as_xyz
  1  'x, y, z'
loop_
 _atom_site_type_symbol
 _atom_site_label
 _atom_site_symmetry_multiplicity
 _atom_site_fract_x
 _atom_site_fract_y
 _atom_site_fract_z
 _atom_site_occupancy
  Al  Al0  1  0.25194642  0.53103861  0.40788796  1
  Al  Al1  1  0.41325905  0.05286151  0.87211303  1
  Al  Al2  1  0.99308053  0.75251142  0.32177509  1
  Al  Al3  1  0.29021591  0.61093889  0.84041936  1
  Al  Al4  1  0.40181820  0.05661897  0.59761997  1
  Al  Al5  1  0.82295146  0.33302888  0.79170306  1
  Al  Al6  1  0.13080982  0.25605117  0.58071567  1
  Al  Al7  1  0.53184211  0.21171475  0.05277101  1
  Al  Al8  1  0.26749891  0.86394659  0.28872592  1
  Al  Al9  1  0.97293615  0.49997472  0.55276894  1
  Al  Al10  1  0.84241121  0.58167485  0.87111323  1
  Al  Al11  1  0.79940589  0.06183823  0.00504103  1
  Al  Al12  1  0.84973798  0.22921286  0.50552834  1
  Al  Al13  1  0.51831997  0.79834765  0.76627774  1
  Al  Al14  1  0.03836001  0.80552640  0.72684806  1
  Al  Al15  1  0.84745231  0.25440784  0.23630510  1
  Al  Al16  1  0.08004425  0.42661300  0.78783694  1
  Al  Al17  1  0.04096594  0.10705728  0.12570258  1
  Al  Al18  1  0.51996459  0.02367806  0.33054397  1
  Al  Al19  1  0.19840587  0.92004896  0.04572858  1
  Al  Al20  1  0.41778864  0.27699251  0.34654431  1
  Al  Al21  1  0.98100442  0.84436643  0.95351463  1
  Al  Al22  1  0.57862755  0.76849229  0.32234014  1
  Al  Al23  1  0.81786057  0.99006870  0.32022557  1
  Al  Al24  1  0.29808908  0.78027972  0.57113708  1
  Al  Al25  1  0.15985147  0.07999984  0.44725802  1
  Al  Al26  1  0.78826194  0.94819809  0.66127128  1
  Al  Al27  1  0.65098570  0.48511901  0.10362623  1
  Al  Al28  1  0.65226790  0.44871422  0.36077837  1
  Al  Al29  1  0.56978011  0.45859515  0.81373348  1
  Al  Al30  1  0.39295399  0.48229856  0.09862092  1
  Al  Al31  1  0.47006832  0.48781160  0.53327266  1
  Al  Al32  1  0.48167159  0.78065846  0.06279406  1
  Al  Al33  1  0.15385607  0.33897377  0.22630689  1
  Al  Al34  1  0.06447602  0.10969823  0.86293458  1
  Al  Al35  1  0.89697413  0.53828158  0.27501060  1
  Al  Al36  1  0.26098704  0.29015172  0.96523766  1
  Al  Al37  1  0.17676270  0.62411337  0.14048869  1
  Al  Al38  1  0.76223665  0.73501001  0.10294044  1
  Al  Al39  1  0.60196981  0.24731477  0.66876598  1
  O  O40  1  0.47909051  0.16556466  0.21504503  1
  O  O41  1  0.24989918  0.01741001  0.89535611  1
  O  O42  1  0.92885698  0.87449410  0.61571143  1
  O  O43  1  0.46017403  0.62898355  0.80189947  1
  O  O44  1  0.93163307  0.42198827  0.87336487  1
  O  O45  1  0.87872652  0.35465037  0.61792870  1
  O  O46  1  0.24214164  0.22327091  0.34420720  1
  O  O47  1  0.88624822  0.16414804  0.87286817  1
  O  O48  1  0.96090689  0.90711455  0.35408734  1
  O  O49  1  0.72986808  0.56437679  0.22750907  1
  O  O50  1  0.40432801  0.18894950  0.95295168  1
  O  O51  1  0.02092726  0.17020716  0.50392762  1
  O  O52  1  0.65940728  0.28729288  0.80378365  1
  O  O53  1  0.48227229  0.41782917  0.69235998  1
  O  O54  1  0.67074408  0.83953445  0.71692194  1
  O  O55  1  0.52738019  0.39905469  0.99690557  1
  O  O56  1  0.11307514  0.76957580  0.04510189  1
  O  O57  1  0.63708041  0.08602009  0.02494253  1
  O  O58  1  0.72707003  0.52332057  0.78526135  1
  O  O59  1  0.28002308  0.34371200  0.10455148  1
  O  O60  1  0.53977649  0.39382869  0.26266490  1
  O  O61  1  0.03935869  0.94938013  0.80392173  1
  O  O62  1  0.43282790  0.87124026  0.33600091  1
  O  O63  1  0.75557638  0.34173843  0.11872851  1
  O  O64  1  0.48090867  0.87673993  0.90302646  1
  O  O65  1  0.41686577  0.87367913  0.63277295  1
  O  O66  1  0.57563670  0.60192772  0.41663732  1
  O  O67  1  0.28698861  0.50893249  0.24316069  1
  O  O68  1  0.12070613  0.42793163  0.48841417  1
  O  O69  1  0.28172595  0.60120355  0.00304574  1
  O  O70  1  0.66512982  0.91374814  0.34856691  1
  O  O71  1  0.50995740  0.60582182  0.08574325  1
  O  O72  1  0.90393462  0.72366498  0.19496122  1
  O  O73  1  0.03627774  0.56679655  0.66647255  1
  O  O74  1  0.96137940  0.70556865  0.86561204  1
  O  O75  1  0.92028572  0.60501928  0.41559856  1
  O  O76  1  0.85887780  0.08583088  0.15880142  1
  O  O77  1  0.33107694  0.62818369  0.51030294  1
  O  O78  1  0.11286487  0.21758448  0.98218246  1
  O  O79  1  0.74853925  0.61945816  0.99946031  1
  O  O80  1  0.16431884  0.70607774  0.31365348  1
  O  O81  1  0.02222292  0.23378132  0.22003079  1
  O  O82  1  0.24064976  0.11125221  0.58296014  1
  O  O83  1  0.47621647  0.11518742  0.44904286  1
  O  O84  1  0.74704566  0.12476811  0.62915201  1
  O  O85  1  0.17828280  0.99726033  0.18767149  1
  O  O86  1  0.60944853  0.80212788  0.15705807  1
  O  O87  1  0.79848681  0.13613884  0.38177557  1
  O  O88  1  0.23183032  0.44498479  0.84552438  1
  O  O89  1  0.21722634  0.90717065  0.45014497  1
  O  O90  1  0.20665048  0.73664264  0.72045415  1
  O  O91  1  0.02838127  0.99425458  0.01852987  1
  O  O92  1  0.83578489  0.37299671  0.36064014  1
  O  O93  1  0.33287688  0.82364174  0.13182142  1
  O  O94  1  0.47572336  0.11887630  0.71366802  1
  O  O95  1  0.10854251  0.26362077  0.73874208  1
  O  O96  1  0.05294156  0.49746205  0.20269292  1
  O  O97  1  0.61555990  0.34908626  0.51284375  1
  O  O98  1  0.37107643  0.39125029  0.45808683  1
  O  O99  1  0.81674322  0.88478359  0.99217179  1
