# generated using pymatgen
data_Si3N4
_symmetry_space_group_name_H-M   'P 1'
_cell_length_a   10.56110313
_cell_length_b   10.10411393
_cell_length_c   10.98113814
_cell_angle_alpha   85.71972746
_cell_angle_beta   89.50014656
_cell_angle_gamma   88.00413268
_symmetry_Int_Tables_number   1
_chemical_formula_structural   Si3N4
_chemical_formula_sum   'Si45 N60'
_cell_volume   1167.80447743
_cell_formula_units_Z   15
loop_
 _symmetry_equiv_pos_site_id
 _symmetry_equiv_pos_as_xyz
  1  'x, y, z'
loop_
 _atom_site_type_symbol
 _atom_site_label
 _atom_site_symmetry_multiplicity
 _atom_site_fract_x
 _atom_site_fract_y
 _atom_site_fract_z
 _atom_site_occupancy
  Si  Si0  1  0.88334176  0.81952952  0.56178849  1
  Si  Si1  1  0.14831533  0.18279047  0.48130627  1
  Si  Si2  1  0.95956377  0.41004322  0.83781753  1
  Si  Si3  1  0.39033739  0.46144652  0.89607540  1
  Si  Si4  1  0.19205559  0.96168412  0.90468925  1
  Si  Si5  1  0.22319949  0.68848292  0.51587345  1
  Si  Si6  1  0.49482690  0.86733555  0.26289636  1
  Si  Si7  1  0.75719322  0.26407425  0.70605868  1
  Si  Si8  1  0.69493853  0.69893927  0.61897987  1
  Si  Si9  1  0.22344436  0.19925799  0.21550000  1
  Si  Si10  1  0.63475582  0.30726196  0.96105455  1
  Si  Si11  1  0.64061178  0.06987155  0.90129308  1
  Si  Si12  1  0.76411937  0.70473355  0.06252713  1
  Si  Si13  1  0.74794391  0.96731747  0.12749759  1
  Si  Si14  1  0.14690385  0.45973780  0.37002065  1
  Si  Si15  1  0.10429592  0.25292771  0.97463379  1
  Si  Si16  1  0.16913384  0.67135221  0.79582825  1
  Si  Si17  1  0.90303398  0.33495616  0.37328970  1
  Si  Si18  1  0.44245288  0.42021102  0.28410077  1
  Si  Si19  1  0.87096154  0.07567466  0.52737219  1
  Si  Si20  1  0.64056862  0.01292071  0.64039388  1
  Si  Si21  1  0.70196134  0.44195403  0.20280589  1
  Si  Si22  1  0.49011907  0.63719385  0.09825594  1
  Si  Si23  1  0.00273592  0.32724225  0.58886144  1
  Si  Si24  1  0.65680716  0.45625421  0.47124761  1
  Si  Si25  1  0.50512115  0.16023989  0.16783053  1
  Si  Si26  1  0.96900585  0.50591192  0.17069218  1
  Si  Si27  1  0.04296444  0.73215262  0.02487933  1
  Si  Si28  1  0.36462797  0.48676705  0.53761294  1
  Si  Si29  1  0.02775230  0.74261450  0.30833811  1
  Si  Si30  1  0.23036816  0.48429659  0.11345534  1
  Si  Si31  1  0.89333205  0.65307688  0.82232258  1
  Si  Si32  1  0.24496811  0.29570458  0.74005016  1
  Si  Si33  1  0.03454136  0.00198834  0.13582697  1
  Si  Si34  1  0.65458937  0.00993426  0.36856483  1
  Si  Si35  1  0.42937553  0.69649616  0.68749914  1
  Si  Si36  1  0.50447423  0.27805454  0.56116834  1
  Si  Si37  1  0.86917927  0.25091775  0.10659261  1
  Si  Si38  1  0.74308507  0.74608650  0.35336393  1
  Si  Si39  1  0.39814824  0.97873300  0.51318502  1
  Si  Si40  1  0.37717324  0.14835916  0.97882610  1
  Si  Si41  1  0.21792839  0.94223243  0.35418908  1
  Si  Si42  1  0.13528909  0.93068507  0.63203566  1
  Si  Si43  1  0.39448739  0.97890030  0.77335380  1
  Si  Si44  1  0.64654668  0.57183959  0.86777326  1
  N  N45  1  0.51461429  0.10039646  0.53401972  1
  N  N46  1  0.34506842  0.28567761  0.87563604  1
  N  N47  1  0.36498030  0.53287789  0.03312564  1
  N  N48  1  0.58497171  0.65388150  0.72884726  1
  N  N49  1  0.16269263  0.75917344  0.64702470  1
  N  N50  1  0.60334211  0.02431542  0.21504351  1
  N  N51  1  0.80083970  0.51816604  0.85557290  1
  N  N52  1  0.75801862  0.80005069  0.19133813  1
  N  N53  1  0.97223189  0.19760570  0.48061428  1
  N  N54  1  0.38205685  0.93962582  0.36227182  1
  N  N55  1  0.28517979  0.48594791  0.26208728  1
  N  N56  1  0.89173500  0.73674403  0.95868838  1
  N  N57  1  0.88045715  0.07527463  0.13923396  1
  N  N58  1  0.43890036  0.77441597  0.16352538  1
  N  N59  1  0.60940951  0.84669000  0.38016790  1
  N  N60  1  0.71484697  0.31714566  0.09776501  1
  N  N61  1  0.97720963  0.94853417  0.58949262  1
  N  N62  1  0.35424763  0.99309825  0.92495093  1
  N  N63  1  0.69384814  0.61906716  0.47913356  1
  N  N64  1  0.21168765  0.52250174  0.49602555  1
  N  N65  1  0.14633200  0.79491495  0.90945007  1
  N  N66  1  0.41658314  0.87446348  0.65126101  1
  N  N67  1  0.03858483  0.57293616  0.81010048  1
  N  N68  1  0.37525494  0.34552538  0.63945075  1
  N  N69  1  0.10716479  0.06883696  0.99651791  1
  N  N70  1  0.18102590  0.31677428  0.09795329  1
  N  N71  1  0.64751953  0.34593380  0.60324976  1
  N  N72  1  0.89448265  0.77921463  0.40670602  1
  N  N73  1  0.71195041  0.94918746  0.98361324  1
  N  N74  1  0.76978502  0.11147393  0.64536543  1
  N  N75  1  0.38849770  0.65467960  0.54640581  1
  N  N76  1  0.99492617  0.43165354  0.46020809  1
  N  N77  1  0.08644939  0.56527231  0.06505660  1
  N  N78  1  0.20120372  0.27238953  0.35702564  1
  N  N79  1  0.21614708  0.00266817  0.74804076  1
  N  N80  1  0.21937125  0.01883192  0.50441657  1
  N  N81  1  0.74421207  0.38713745  0.35673826  1
  N  N82  1  0.78959549  0.06799111  0.39824246  1
  N  N83  1  0.48695043  0.42135708  0.44540409  1
  N  N84  1  0.55162913  0.43844316  0.89098374  1
  N  N85  1  0.11921700  0.33321171  0.83193333  1
  N  N86  1  0.71202425  0.87154549  0.58941486  1
  N  N87  1  0.32767824  0.59892180  0.79133311  1
  N  N88  1  0.62048078  0.66437877  0.99413329  1
  N  N89  1  0.94758588  0.30715000  0.97708076  1
  N  N90  1  0.49977079  0.26749694  0.27020112  1
  N  N91  1  0.89948920  0.34116021  0.70454640  1
  N  N92  1  0.15036808  0.25362942  0.61831639  1
  N  N93  1  0.53975576  0.16929645  0.00373278  1
  N  N94  1  0.81378678  0.55660404  0.14725592  1
  N  N95  1  0.85335386  0.69365253  0.67078277  1
  N  N96  1  0.16043950  0.78827753  0.39078720  1
  N  N97  1  0.13580085  0.04905124  0.25185871  1
  N  N98  1  0.55525286  0.52247913  0.21114928  1
  N  N99  1  0.35064270  0.12797965  0.13602546  1
  N  N100  1  0.55296119  0.02665825  0.77514487  1
  N  N101  1  0.94626632  0.33482519  0.22106544  1
  N  N102  1  0.04278222  0.57876597  0.28794922  1
  N  N103  1  0.03657924  0.82795504  0.15640579  1
  N  N104  1  0.71117025  0.22066858  0.85258410  1
