# generated using pymatgen
data_BaAl2O6
_symmetry_space_group_name_H-M   'P 1'
_cell_length_a   11.39709103
_cell_length_b   13.01839191
_cell_length_c   7.56852129
_cell_angle_alpha   90.00459430
_cell_angle_beta   90.00278259
_cell_angle_gamma   89.99856879
_symmetry_Int_Tables_number   1
_chemical_formula_structural   BaAl2O6
_chemical_formula_sum   'Ba8 Al16 O48'
_cell_volume   1122.95510465
_cell_formula_units_Z   8
loop_
 _symmetry_equiv_pos_site_id
 _symmetry_equiv_pos_as_xyz
  1  'x, y, z'
loop_
 _atom_site_type_symbol
 _atom_site_label
 _atom_site_symmetry_multiplicity
 _atom_site_fract_x
 _atom_site_fract_y
 _atom_site_fract_z
 _atom_site_occupancy
  Ba  Ba0  1  0.63837701  0.34569009  0.08737704  1
  Ba  Ba1  1  0.13839653  0.15430904  0.91260827  1
  Ba  Ba2  1  0.36161634  0.84568469  0.41265860  1
  Ba  Ba3  1  0.86163626  0.65430455  0.58738825  1
  Ba  Ba4  1  0.36162299  0.65430991  0.91262296  1
  Ba  Ba5  1  0.86160347  0.84569096  0.08739173  1
  Ba  Ba6  1  0.63838366  0.15431531  0.58734140  1
  Ba  Ba7  1  0.13836374  0.34569545  0.41261175  1
  Al  Al8  1  0.61059429  0.02847094  0.14908857  1
  Al  Al9  1  0.11060946  0.47151827  0.85092709  1
  Al  Al10  1  0.38937931  0.52844850  0.35090306  1
  Al  Al11  1  0.88940336  0.97154498  0.64909621  1
  Al  Al12  1  0.38940571  0.97152906  0.85091143  1
  Al  Al13  1  0.88939054  0.52848173  0.14907291  1
  Al  Al14  1  0.61062069  0.47155150  0.64909694  1
  Al  Al15  1  0.11059664  0.02845502  0.35090379  1
  Al  Al16  1  0.87584996  0.11247548  0.29763501  1
  Al  Al17  1  0.37586936  0.38752123  0.70239983  1
  Al  Al18  1  0.12413671  0.61248040  0.20238918  1
  Al  Al19  1  0.62416121  0.88753578  0.79759911  1
  Al  Al20  1  0.12415004  0.88752452  0.70236499  1
  Al  Al21  1  0.62413064  0.61247877  0.29760017  1
  Al  Al22  1  0.87586329  0.38751960  0.79761082  1
  Al  Al23  1  0.37583879  0.11246422  0.20240089  1
  O  O24  1  0.00691945  0.19406393  0.24721400  1
  O  O25  1  0.50692418  0.30590679  0.75279470  1
  O  O26  1  0.99309799  0.69411962  0.25275615  1
  O  O27  1  0.49309958  0.80592108  0.74722130  1
  O  O28  1  0.99308055  0.80593607  0.75278600  1
  O  O29  1  0.49307582  0.69409321  0.24720530  1
  O  O30  1  0.00690201  0.30588038  0.74724385  1
  O  O31  1  0.50690042  0.19407892  0.25277870  1
  O  O32  1  0.49179538  0.02992561  0.30399741  1
  O  O33  1  0.99182465  0.47002481  0.69597057  1
  O  O34  1  0.50818106  0.52992907  0.19598879  1
  O  O35  1  0.00822708  0.97009307  0.80397632  1
  O  O36  1  0.50820462  0.97007439  0.69600259  1
  O  O37  1  0.00817535  0.52997519  0.30402943  1
  O  O38  1  0.49181894  0.47007093  0.80401121  1
  O  O39  1  0.99177292  0.02990693  0.19602368  1
  O  O40  1  0.76914151  0.21356291  0.27784887  1
  O  O41  1  0.26914352  0.28644838  0.72212605  1
  O  O42  1  0.23088048  0.71353788  0.22214285  1
  O  O43  1  0.73087500  0.78645316  0.77781405  1
  O  O44  1  0.23085849  0.78643709  0.72215113  1
  O  O45  1  0.73085648  0.71355162  0.27787395  1
  O  O46  1  0.76911952  0.28646212  0.77785715  1
  O  O47  1  0.26912500  0.21354684  0.22218595  1
  O  O48  1  0.58455574  0.13537246  0.99893599  1
  O  O49  1  0.08458742  0.36462778  0.00109241  1
  O  O50  1  0.41542407  0.63536161  0.50103888  1
  O  O51  1  0.91541726  0.86463997  0.49893871  1
  O  O52  1  0.41544426  0.86462754  0.00106401  1
  O  O53  1  0.91541258  0.63537222  0.99890759  1
  O  O54  1  0.58457593  0.36463839  0.49896112  1
  O  O55  1  0.08458274  0.13536003  0.50106129  1
  O  O56  1  0.75037073  0.03284957  0.24380984  1
  O  O57  1  0.25039983  0.46715705  0.75627551  1
  O  O58  1  0.24959304  0.53281163  0.25624893  1
  O  O59  1  0.74962265  0.96717850  0.74378698  1
  O  O60  1  0.24962927  0.96715043  0.75619016  1
  O  O61  1  0.74960017  0.53284295  0.24372449  1
  O  O62  1  0.75040696  0.46718837  0.74375107  1
  O  O63  1  0.25037735  0.03282150  0.25621302  1
  O  O64  1  0.89112603  0.08889262  0.53193078  1
  O  O65  1  0.39113621  0.41111391  0.46810671  1
  O  O66  1  0.10884412  0.58887057  0.96810291  1
  O  O67  1  0.60889309  0.91112886  0.03189099  1
  O  O68  1  0.10887397  0.91110738  0.46806922  1
  O  O69  1  0.60886379  0.58888609  0.53189329  1
  O  O70  1  0.89115588  0.41112943  0.03189709  1
  O  O71  1  0.39110691  0.08887114  0.96810901  1
