# generated using pymatgen
data_MgO
_symmetry_space_group_name_H-M   'P 1'
_cell_length_a   9.33079402
_cell_length_b   10.56575313
_cell_length_c   9.98181523
_cell_angle_alpha   97.46439409
_cell_angle_beta   89.44843676
_cell_angle_gamma   89.08072241
_symmetry_Int_Tables_number   1
_chemical_formula_structural   MgO
_chemical_formula_sum   'Mg40 O40'
_cell_volume   975.54295833
_cell_formula_units_Z   40
loop_
 _symmetry_equiv_pos_site_id
 _symmetry_equiv_pos_as_xyz
  1  'x, y, z'
loop_
 _atom_site_type_symbol
 _atom_site_label
 _atom_site_symmetry_multiplicity
 _atom_site_fract_x
 _atom_site_fract_y
 _atom_site_fract_z
 _atom_site_occupancy
  Mg  Mg0  1  0.70409211  0.86323121  0.87681384  1
  Mg  Mg1  1  0.28738646  0.54737184  0.65593687  1
  Mg  Mg2  1  0.87913082  0.52922751  0.09729848  1
  Mg  Mg3  1  0.61369256  0.74057758  0.59497313  1
  Mg  Mg4  1  0.39859141  0.72136348  0.38859791  1
  Mg  Mg5  1  0.24529791  0.75710209  0.06811818  1
  Mg  Mg6  1  0.57514981  0.08568240  0.85889493  1
  Mg  Mg7  1  0.58496193  0.51513995  0.84499874  1
  Mg  Mg8  1  0.01910609  0.47144369  0.51561950  1
  Mg  Mg9  1  0.81703850  0.94821248  0.60194405  1
  Mg  Mg10  1  0.47393143  0.28291848  0.65095713  1
  Mg  Mg11  1  0.06172291  0.83449031  0.46064817  1
  Mg  Mg12  1  0.84155094  0.63250330  0.74360658  1
  Mg  Mg13  1  0.10899176  0.00425124  0.22919328  1
  Mg  Mg14  1  0.09580513  0.57175324  0.88647313  1
  Mg  Mg15  1  0.90629926  0.78540165  0.08756902  1
  Mg  Mg16  1  0.91381690  0.32117271  0.27854847  1
  Mg  Mg17  1  0.77943986  0.07732027  0.12493422  1
  Mg  Mg18  1  0.78361803  0.27821701  0.90999932  1
  Mg  Mg19  1  0.46315854  0.96059969  0.58949785  1
  Mg  Mg20  1  0.94914933  0.12258696  0.41770353  1
  Mg  Mg21  1  0.55162072  0.14777512  0.38518443  1
  Mg  Mg22  1  0.46641741  0.91655017  0.13692129  1
  Mg  Mg23  1  0.35566085  0.38944334  0.96994111  1
  Mg  Mg24  1  0.77346038  0.24198680  0.60706810  1
  Mg  Mg25  1  0.55088379  0.28520936  0.13091966  1
  Mg  Mg26  1  0.13115119  0.57121308  0.23768384  1
  Mg  Mg27  1  0.41716348  0.79334642  0.79943486  1
  Mg  Mg28  1  0.23097056  0.23148450  0.12838238  1
  Mg  Mg29  1  0.24025479  0.22341525  0.42014167  1
  Mg  Mg30  1  0.59054384  0.47987271  0.51777317  1
  Mg  Mg31  1  0.35841207  0.42873012  0.32789907  1
  Mg  Mg32  1  0.06704204  0.30651112  0.84740595  1
  Mg  Mg33  1  0.80209524  0.63950895  0.36975866  1
  Mg  Mg34  1  0.18296810  0.04638151  0.62831227  1
  Mg  Mg35  1  0.09144782  0.78822137  0.76650805  1
  Mg  Mg36  1  0.56108253  0.60570609  0.16147378  1
  Mg  Mg37  1  0.72482647  0.91087837  0.33875448  1
  Mg  Mg38  1  0.30149396  0.03567236  0.93552427  1
  Mg  Mg39  1  0.96731683  0.05596341  0.84884311  1
  O  O40  1  0.77524722  0.05378935  0.92969529  1
  O  O41  1  0.40181550  0.24222755  0.27860983  1
  O  O42  1  0.89986545  0.44825223  0.90929261  1
  O  O43  1  0.61276603  0.02637105  0.22662302  1
  O  O44  1  0.40326594  0.70676823  0.60406294  1
  O  O45  1  0.52256972  0.54512289  0.34409941  1
  O  O46  1  0.54999521  0.84972400  0.43456007  1
  O  O47  1  0.85698998  0.81023485  0.44838249  1
  O  O48  1  0.18900473  0.70671825  0.37171219  1
  O  O49  1  0.90845608  0.78585015  0.88565820  1
  O  O50  1  0.25409312  0.94976549  0.10018996  1
  O  O51  1  0.06153597  0.65202054  0.08223222  1
  O  O52  1  0.12039704  0.01457647  0.43547824  1
  O  O53  1  0.25225968  0.42537321  0.15187363  1
  O  O54  1  0.08292938  0.19350423  0.26537048  1
  O  O55  1  0.94399450  0.50334418  0.29029752  1
  O  O56  1  0.31455109  0.96090453  0.74116845  1
  O  O57  1  0.62901309  0.24335082  0.77508356  1
  O  O58  1  0.47375408  0.46730755  0.68837135  1
  O  O59  1  0.41774420  0.20058185  0.98813231  1
  O  O60  1  0.12238090  0.15701426  0.95000085  1
  O  O61  1  0.50480928  0.92613193  0.94373032  1
  O  O62  1  0.41879439  0.73945847  0.17071036  1
  O  O63  1  0.90832123  0.95312321  0.20247566  1
  O  O64  1  0.63979118  0.68500155  0.81138549  1
  O  O65  1  0.60928024  0.29855513  0.49743837  1
  O  O66  1  0.01829212  0.93191464  0.67637081  1
  O  O67  1  0.76350429  0.07103978  0.48030203  1
  O  O68  1  0.55188186  0.45374444  0.02102983  1
  O  O69  1  0.04944419  0.60110386  0.68364299  1
  O  O70  1  0.75790992  0.67820003  0.17323116  1
  O  O71  1  0.22086036  0.42224763  0.83169001  1
  O  O72  1  0.76854437  0.27167738  0.13171205  1
  O  O73  1  0.63822973  0.92164382  0.69953750  1
  O  O74  1  0.75750704  0.59083271  0.55494522  1
  O  O75  1  0.22744094  0.41789332  0.48357721  1
  O  O76  1  0.24553059  0.71311737  0.86995476  1
  O  O77  1  0.36845842  0.13382657  0.55088011  1
  O  O78  1  0.92865252  0.20055410  0.74344306  1
  O  O79  1  0.92183166  0.30644925  0.47884790  1
