# generated using pymatgen
data_Si3Bi5N9
_symmetry_space_group_name_H-M   'P 1'
_cell_length_a   8.09617924
_cell_length_b   11.90141048
_cell_length_c   15.86515033
_cell_angle_alpha   90.00000000
_cell_angle_beta   90.00000000
_cell_angle_gamma   137.30735794
_symmetry_Int_Tables_number   1
_chemical_formula_structural   Si3Bi5N9
_chemical_formula_sum   'Si12 Bi20 N36'
_cell_volume   1036.55953610
_cell_formula_units_Z   4
loop_
 _symmetry_equiv_pos_site_id
 _symmetry_equiv_pos_as_xyz
  1  'x, y, z'
loop_
 _atom_site_type_symbol
 _atom_site_label
 _atom_site_symmetry_multiplicity
 _atom_site_fract_x
 _atom_site_fract_y
 _atom_site_fract_z
 _atom_site_occupancy
  Si  Si0  1  0.00000000  0.77200400  0.02596263  1
  Si  Si1  1  -0.00000000  0.22799600  0.97403737  1
  Si  Si2  1  -0.00000000  0.72799600  0.52596263  1
  Si  Si3  1  0.00000000  0.27200400  0.47403737  1
  Si  Si4  1  -0.00000000  0.20395551  0.76917237  1
  Si  Si5  1  0.00000000  0.79604449  0.23082763  1
  Si  Si6  1  0.00000000  0.29604449  0.26917237  1
  Si  Si7  1  -0.00000000  0.70395551  0.73082763  1
  Si  Si8  1  0.50000000  0.77964272  0.75000000  1
  Si  Si9  1  0.50000000  0.72035728  0.25000000  1
  Si  Si10  1  0.50000000  0.22035728  0.25000000  1
  Si  Si11  1  0.50000000  0.27964272  0.75000000  1
  Bi  Bi12  1  1.00000000  0.51630512  0.86770648  1
  Bi  Bi13  1  0.00000000  0.48369488  0.13229352  1
  Bi  Bi14  1  0.00000000  0.98369488  0.36770648  1
  Bi  Bi15  1  1.00000000  0.01630512  0.63229352  1
  Bi  Bi16  1  0.38942308  0.96534654  0.87465105  1
  Bi  Bi17  1  0.38942308  0.42407653  0.12534895  1
  Bi  Bi18  1  0.38942308  0.92407653  0.37465105  1
  Bi  Bi19  1  0.38942308  0.46534654  0.62534895  1
  Bi  Bi20  1  0.61057692  0.03465346  0.12534895  1
  Bi  Bi21  1  0.61057692  0.57592347  0.87465105  1
  Bi  Bi22  1  0.61057692  0.07592347  0.62534895  1
  Bi  Bi23  1  0.61057692  0.53465346  0.37465105  1
  Bi  Bi24  1  0.00000000  0.48410419  0.63918778  1
  Bi  Bi25  1  1.00000000  0.51589581  0.36081222  1
  Bi  Bi26  1  1.00000000  0.01589581  0.13918778  1
  Bi  Bi27  1  0.00000000  0.98410419  0.86081222  1
  Bi  Bi28  1  0.50463375  0.25231638  0.00000000  1
  Bi  Bi29  1  0.50463375  0.75231638  0.50000000  1
  Bi  Bi30  1  0.49536625  0.74768362  0.00000000  1
  Bi  Bi31  1  0.49536625  0.24768362  0.50000000  1
  N  N32  1  1.00000000  0.30926693  0.69135624  1
  N  N33  1  0.00000000  0.69073307  0.30864376  1
  N  N34  1  0.00000000  0.19073307  0.19135624  1
  N  N35  1  1.00000000  0.80926693  0.80864376  1
  N  N36  1  -0.00000000  0.24992931  0.86840996  1
  N  N37  1  0.00000000  0.75007069  0.13159004  1
  N  N38  1  0.00000000  0.25007069  0.36840996  1
  N  N39  1  -0.00000000  0.74992931  0.63159004  1
  N  N40  1  0.00000000  0.65031075  0.96341224  1
  N  N41  1  1.00000000  0.34968925  0.03658776  1
  N  N42  1  1.00000000  0.84968925  0.46341224  1
  N  N43  1  0.00000000  0.15031075  0.53658776  1
  N  N44  1  0.76575429  0.49182460  0.76209943  1
  N  N45  1  0.76575429  0.27393068  0.23790057  1
  N  N46  1  0.76575429  0.77393068  0.26209943  1
  N  N47  1  0.76575429  0.99182460  0.73790057  1
  N  N48  1  0.23424571  0.50817540  0.23790057  1
  N  N49  1  0.23424571  0.72606932  0.76209943  1
  N  N50  1  0.23424571  0.22606932  0.73790057  1
  N  N51  1  0.23424571  0.00817540  0.26209943  1
  N  N52  1  0.45851226  0.18528704  0.84486741  1
  N  N53  1  0.45851226  0.27322522  0.15513259  1
  N  N54  1  0.45851226  0.77322522  0.34486741  1
  N  N55  1  0.45851226  0.68528704  0.65513259  1
  N  N56  1  0.54148774  0.81471296  0.15513259  1
  N  N57  1  0.54148774  0.72677478  0.84486741  1
  N  N58  1  0.54148774  0.22677478  0.65513259  1
  N  N59  1  0.54148774  0.31471296  0.34486741  1
  N  N60  1  0.25681531  0.97972242  0.99287540  1
  N  N61  1  0.25681531  0.27709289  0.00712460  1
  N  N62  1  0.25681531  0.77709289  0.49287540  1
  N  N63  1  0.25681531  0.47972242  0.50712460  1
  N  N64  1  0.74318469  0.02027758  0.00712460  1
  N  N65  1  0.74318469  0.72290711  0.99287540  1
  N  N66  1  0.74318469  0.22290711  0.50712460  1
  N  N67  1  0.74318469  0.52027758  0.49287540  1
