# generated using pymatgen
data_Al2Pb3N4
_symmetry_space_group_name_H-M   'P 1'
_cell_length_a   8.27275574
_cell_length_b   8.83661583
_cell_length_c   5.69705488
_cell_angle_alpha   89.99999917
_cell_angle_beta   77.59252955
_cell_angle_gamma   122.28149785
_symmetry_Int_Tables_number   1
_chemical_formula_structural   Al2Pb3N4
_chemical_formula_sum   'Al4 Pb6 N8'
_cell_volume   340.53956471
_cell_formula_units_Z   2
loop_
 _symmetry_equiv_pos_site_id
 _symmetry_equiv_pos_as_xyz
  1  'x, y, z'
loop_
 _atom_site_type_symbol
 _atom_site_label
 _atom_site_symmetry_multiplicity
 _atom_site_fract_x
 _atom_site_fract_y
 _atom_site_fract_z
 _atom_site_occupancy
  Al  Al0  1  0.47996940  0.13636768  0.57800590  1
  Al  Al1  1  0.52003060  0.65639828  0.92199410  1
  Al  Al2  1  0.52003060  0.86363232  0.42199410  1
  Al  Al3  1  0.47996940  0.34360172  0.07800590  1
  Pb  Pb4  1  0.25536474  0.87695326  0.13039739  1
  Pb  Pb5  1  0.74463526  0.62158852  0.36960261  1
  Pb  Pb6  1  0.74463526  0.12304674  0.86960261  1
  Pb  Pb7  1  0.25536474  0.37841148  0.63039739  1
  Pb  Pb8  1  1.00000000  0.63154174  0.75000000  1
  Pb  Pb9  1  0.00000000  0.36845826  0.25000000  1
  N  N10  1  0.29725312  0.89525675  0.52490842  1
  N  N11  1  0.70274688  0.59800463  0.97509158  1
  N  N12  1  0.70274688  0.10474325  0.47509158  1
  N  N13  1  0.29725312  0.40199537  0.02490842  1
  N  N14  1  0.48124037  0.16422282  0.90855519  1
  N  N15  1  0.51875963  0.68298244  0.59144481  1
  N  N16  1  0.51875963  0.83577718  0.09144481  1
  N  N17  1  0.48124037  0.31701756  0.40855519  1
