# generated using pymatgen
data_Cs2Se
_symmetry_space_group_name_H-M   'P 1'
_cell_length_a   5.50494654
_cell_length_b   5.50506996
_cell_length_c   6.62641375
_cell_angle_alpha   90.00001999
_cell_angle_beta   90.00809161
_cell_angle_gamma   120.00079049
_symmetry_Int_Tables_number   1
_chemical_formula_structural   Cs2Se
_chemical_formula_sum   'Cs2 Se1'
_cell_volume   173.90884268
_cell_formula_units_Z   1
loop_
 _symmetry_equiv_pos_site_id
 _symmetry_equiv_pos_as_xyz
  1  'x, y, z'
loop_
 _atom_site_type_symbol
 _atom_site_label
 _atom_site_symmetry_multiplicity
 _atom_site_fract_x
 _atom_site_fract_y
 _atom_site_fract_z
 _atom_site_occupancy
  Cs  Cs0  1  0.33337922  0.66668952  0.23901928  1
  Cs  Cs1  1  0.66662079  0.33331048  0.76098071  1
  Se  Se2  1  -0.00000002  0.00000000  0.00000002  1
