# generated using pymatgen
data_Ca7SN6
_symmetry_space_group_name_H-M   'P 1'
_cell_length_a   12.11501765
_cell_length_b   6.37050057
_cell_length_c   12.49201260
_cell_angle_alpha   90.00000000
_cell_angle_beta   90.00000000
_cell_angle_gamma   90.00000000
_symmetry_Int_Tables_number   1
_chemical_formula_structural   Ca7SN6
_chemical_formula_sum   'Ca28 S4 N24'
_cell_volume   964.11762820
_cell_formula_units_Z   4
loop_
 _symmetry_equiv_pos_site_id
 _symmetry_equiv_pos_as_xyz
  1  'x, y, z'
loop_
 _atom_site_type_symbol
 _atom_site_label
 _atom_site_symmetry_multiplicity
 _atom_site_fract_x
 _atom_site_fract_y
 _atom_site_fract_z
 _atom_site_occupancy
  Ca  Ca0  1  0.06573839  0.69997685  0.00179990  1
  Ca  Ca1  1  0.43426161  0.80002315  0.50179990  1
  Ca  Ca2  1  0.56573839  0.80002315  0.99820010  1
  Ca  Ca3  1  0.93426161  0.69997685  0.49820010  1
  Ca  Ca4  1  0.93426161  0.30002315  0.99820010  1
  Ca  Ca5  1  0.56573839  0.19997685  0.49820010  1
  Ca  Ca6  1  0.43426161  0.19997685  0.00179990  1
  Ca  Ca7  1  0.06573839  0.30002315  0.50179990  1
  Ca  Ca8  1  0.22159488  0.90240953  0.66757530  1
  Ca  Ca9  1  0.27840512  0.59759047  0.16757530  1
  Ca  Ca10  1  0.72159488  0.59759047  0.33242470  1
  Ca  Ca11  1  0.77840512  0.90240953  0.83242470  1
  Ca  Ca12  1  0.77840512  0.09759047  0.33242470  1
  Ca  Ca13  1  0.72159488  0.40240953  0.83242470  1
  Ca  Ca14  1  0.27840512  0.40240953  0.66757530  1
  Ca  Ca15  1  0.22159488  0.09759047  0.16757530  1
  Ca  Ca16  1  0.31349129  0.65834807  0.89650677  1
  Ca  Ca17  1  0.18650871  0.84165193  0.39650677  1
  Ca  Ca18  1  0.81349129  0.84165193  0.10349323  1
  Ca  Ca19  1  0.68650871  0.65834807  0.60349323  1
  Ca  Ca20  1  0.68650871  0.34165193  0.10349323  1
  Ca  Ca21  1  0.81349129  0.15834807  0.60349323  1
  Ca  Ca22  1  0.18650871  0.15834807  0.89650677  1
  Ca  Ca23  1  0.31349129  0.34165193  0.39650677  1
  Ca  Ca24  1  0.00000000  0.61995777  0.75000000  1
  Ca  Ca25  1  0.50000000  0.88004223  0.25000000  1
  Ca  Ca26  1  0.00000000  0.38004223  0.25000000  1
  Ca  Ca27  1  0.50000000  0.11995777  0.75000000  1
  S  S28  1  0.00000000  0.09650650  0.75000000  1
  S  S29  1  0.50000000  0.40349350  0.25000000  1
  S  S30  1  0.00000000  0.90349350  0.25000000  1
  S  S31  1  0.50000000  0.59650650  0.75000000  1
  N  N32  1  0.15225385  0.79557453  0.84118803  1
  N  N33  1  0.34774615  0.70442547  0.34118803  1
  N  N34  1  0.65225385  0.70442547  0.15881197  1
  N  N35  1  0.84774615  0.79557453  0.65881197  1
  N  N36  1  0.84774615  0.20442547  0.15881197  1
  N  N37  1  0.65225385  0.29557453  0.65881197  1
  N  N38  1  0.34774615  0.29557453  0.84118803  1
  N  N39  1  0.15225385  0.20442547  0.34118803  1
  N  N40  1  0.12480763  0.65680081  0.55372643  1
  N  N41  1  0.37519237  0.84319919  0.05372643  1
  N  N42  1  0.62480763  0.84319919  0.44627357  1
  N  N43  1  0.87519237  0.65680081  0.94627357  1
  N  N44  1  0.87519237  0.34319919  0.44627357  1
  N  N45  1  0.62480763  0.15680081  0.94627357  1
  N  N46  1  0.37519237  0.15680081  0.55372643  1
  N  N47  1  0.12480763  0.34319919  0.05372643  1
  N  N48  1  0.40166331  0.72980583  0.70344732  1
  N  N49  1  0.09833669  0.77019417  0.20344732  1
  N  N50  1  0.90166331  0.77019417  0.29655268  1
  N  N51  1  0.59833669  0.72980583  0.79655268  1
  N  N52  1  0.59833669  0.27019417  0.29655268  1
  N  N53  1  0.90166331  0.22980583  0.79655268  1
  N  N54  1  0.09833669  0.22980583  0.70344732  1
  N  N55  1  0.40166331  0.27019417  0.20344732  1
