# generated using pymatgen
data_Si3N4
_symmetry_space_group_name_H-M   'P 1'
_cell_length_a   10.70520772
_cell_length_b   10.98399543
_cell_length_c   10.42801431
_cell_angle_alpha   87.22928710
_cell_angle_beta   90.10721583
_cell_angle_gamma   91.19420857
_symmetry_Int_Tables_number   1
_chemical_formula_structural   Si3N4
_chemical_formula_sum   'Si45 N60'
_cell_volume   1224.48807526
_cell_formula_units_Z   15
loop_
 _symmetry_equiv_pos_site_id
 _symmetry_equiv_pos_as_xyz
  1  'x, y, z'
loop_
 _atom_site_type_symbol
 _atom_site_label
 _atom_site_symmetry_multiplicity
 _atom_site_fract_x
 _atom_site_fract_y
 _atom_site_fract_z
 _atom_site_occupancy
  Si  Si0  1  0.26210989  0.98616832  0.91299434  1
  Si  Si1  1  0.51796434  0.58424564  0.18828737  1
  Si  Si2  1  0.87536302  0.84249733  0.74301575  1
  Si  Si3  1  0.01690939  0.42138160  0.41290690  1
  Si  Si4  1  0.37734096  0.36334592  0.64064994  1
  Si  Si5  1  0.47318108  0.61890306  0.64159921  1
  Si  Si6  1  0.14506442  0.61671320  0.09659964  1
  Si  Si7  1  0.02091127  0.05140189  0.62462075  1
  Si  Si8  1  0.30885264  0.58480066  0.90998667  1
  Si  Si9  1  0.06164694  0.15184116  0.36060677  1
  Si  Si10  1  0.32729076  0.71372313  0.15419325  1
  Si  Si11  1  0.53182119  0.60632062  0.91149077  1
  Si  Si12  1  0.73715261  0.32492712  0.96338966  1
  Si  Si13  1  0.57062020  0.34894983  0.19242756  1
  Si  Si14  1  0.66075063  0.44475364  0.57840229  1
  Si  Si15  1  0.34822581  0.27442591  0.34791685  1
  Si  Si16  1  0.17820266  0.40569900  0.15337082  1
  Si  Si17  1  0.51046453  0.95480327  0.55807521  1
  Si  Si18  1  0.08240003  0.73508696  0.33458234  1
  Si  Si19  1  0.89628848  0.91255926  0.97154868  1
  Si  Si20  1  0.94863359  0.89430747  0.44833819  1
  Si  Si21  1  0.17801400  0.33170995  0.89646910  1
  Si  Si22  1  0.72462410  0.80225563  0.24446736  1
  Si  Si23  1  0.23972649  0.15920529  0.78232688  1
  Si  Si24  1  0.62742163  0.87461463  0.84538814  1
  Si  Si25  1  0.18498717  0.52199413  0.63854847  1
  Si  Si26  1  0.82939203  0.59902582  0.39799304  1
  Si  Si27  1  0.83420235  0.19090630  0.20534557  1
  Si  Si28  1  0.63042478  0.21851839  0.44376841  1
  Si  Si29  1  0.86739783  0.20661365  0.51976370  1
  Si  Si30  1  0.70653170  0.02614450  0.36237682  1
  Si  Si31  1  0.11594824  0.75619115  0.82710520  1
  Si  Si32  1  0.07636249  0.12319284  0.07182043  1
  Si  Si33  1  0.28130169  0.12034601  0.52384650  1
  Si  Si34  1  0.81283243  0.47727769  0.17250151  1
  Si  Si35  1  0.78902217  0.58711275  0.87836384  1
  Si  Si36  1  0.35602221  0.97572217  0.14220310  1
  Si  Si37  1  0.62874317  0.75244710  0.60157812  1
  Si  Si38  1  0.84388853  0.10392674  0.83376172  1
  Si  Si39  1  0.97994540  0.62278277  0.61291158  1
  Si  Si40  1  0.23299641  0.57342888  0.35542814  1
  Si  Si41  1  0.46177306  0.38472924  0.96731024  1
  Si  Si42  1  0.57119756  0.14467518  0.95234583  1
  Si  Si43  1  0.45354663  0.75155129  0.36436556  1
  Si  Si44  1  0.89120733  0.70326558  0.12178403  1
  N  N45  1  0.78563382  0.94594868  0.84099667  1
  N  N46  1  0.58451145  0.88083368  0.69010250  1
  N  N47  1  0.28512494  0.57172083  0.51122515  1
  N  N48  1  0.34796091  0.84318043  0.24053305  1
  N  N49  1  0.96224163  0.06344420  0.95659548  1
  N  N50  1  0.69906716  0.07827122  0.18960968  1
  N  N51  1  0.41163940  0.96506887  0.98109173  1
  N  N52  1  0.38138220  0.61351607  0.28407327  1
  N  N53  1  0.96237051  0.79868374  0.88014162  1
  N  N54  1  0.64979731  0.48592093  0.19406975  1
  N  N55  1  0.12208012  0.28439847  0.04822617  1
  N  N56  1  0.59042857  0.29350253  0.04004430  1
  N  N57  1  0.04101468  0.70353107  0.17240380  1
  N  N58  1  0.53604844  0.98294708  0.92773213  1
  N  N59  1  0.52224030  0.27088231  0.33115101  1
  N  N60  1  0.84827546  0.63476573  0.71614943  1
  N  N61  1  0.74302917  0.44197385  0.85497203  1
  N  N62  1  0.16632656  0.64165095  0.93483096  1
  N  N63  1  0.66001349  0.70324317  0.89337229  1
  N  N64  1  0.43540488  0.41965777  0.14492298  1
  N  N65  1  0.41180849  0.63293875  0.79339863  1
  N  N66  1  0.79138176  0.89788659  0.36423279  1
  N  N67  1  0.37929167  0.66974894  0.51607865  1
  N  N68  1  0.57419669  0.73183855  0.24314659  1
  N  N69  1  0.72642348  0.18074611  0.89926441  1
  N  N70  1  0.71689992  0.30369544  0.55053682  1
  N  N71  1  0.97107947  0.05959904  0.46548684  1
  N  N72  1  0.94858588  0.69440417  0.46133047  1
  N  N73  1  0.20972091  0.02779223  0.07333412  1
  N  N74  1  0.30153488  0.42884404  0.93353645  1
  N  N75  1  0.38348015  0.24253764  0.76088976  1
  N  N76  1  0.58461292  0.08017262  0.13478777  1
  N  N77  1  0.99882831  0.27238733  0.44509533  1
  N  N78  1  0.89994751  0.14475434  0.68228604  1
  N  N79  1  0.49689787  0.03868663  0.20879458  1
  N  N80  1  0.81837451  0.84327235  0.09746410  1
  N  N81  1  0.16265426  0.12569608  0.64175042  1
  N  N82  1  0.77919096  0.17890973  0.36815202  1
  N  N83  1  0.45554172  0.24742418  0.87651086  1
  N  N84  1  0.20180444  0.88168019  0.82571410  1
  N  N85  1  0.55107210  0.83080857  0.46663484  1
  N  N86  1  0.42649882  0.64735429  0.03663623  1
  N  N87  1  0.80326672  0.67166349  0.25613816  1
  N  N88  1  0.97189116  0.89879620  0.62716949  1
  N  N89  1  0.88870369  0.47217485  0.32472352  1
  N  N90  1  0.07810976  0.88236076  0.35941972  1
  N  N91  1  0.35070644  0.27395054  0.51401490  1
  N  N92  1  0.50910953  0.45924154  0.63067908  1
  N  N93  1  0.32879566  0.36603253  0.20696928  1
  N  N94  1  0.04060839  0.48582606  0.56142521  1
  N  N95  1  0.22614196  0.15542327  0.36107660  1
  N  N96  1  0.77932430  0.74321301  0.66900083  1
  N  N97  1  0.98658598  0.13628635  0.21111495  1
  N  N98  1  0.36868026  0.00494416  0.56039374  1
  N  N99  1  0.14863528  0.43950362  0.31986458  1
  N  N100  1  0.11337652  0.65774520  0.69653022  1
  N  N101  1  0.70761062  0.57144195  0.49891168  1
  N  N102  1  0.82280272  0.32601289  0.11298895  1
  N  N103  1  0.86137348  0.57652298  0.03489768  1
  N  N104  1  0.61473791  0.06625753  0.48823735  1
