# generated using pymatgen
data_BeO
_symmetry_space_group_name_H-M   'P 1'
_cell_length_a   10.09972323
_cell_length_b   8.96623803
_cell_length_c   9.26153862
_cell_angle_alpha   91.16284785
_cell_angle_beta   97.22118530
_cell_angle_gamma   86.12424205
_symmetry_Int_Tables_number   1
_chemical_formula_structural   BeO
_chemical_formula_sum   'Be50 O50'
_cell_volume   830.07858946
_cell_formula_units_Z   50
loop_
 _symmetry_equiv_pos_site_id
 _symmetry_equiv_pos_as_xyz
  1  'x, y, z'
loop_
 _atom_site_type_symbol
 _atom_site_label
 _atom_site_symmetry_multiplicity
 _atom_site_fract_x
 _atom_site_fract_y
 _atom_site_fract_z
 _atom_site_occupancy
  Be  Be0  1  0.43070988  0.50805993  0.69333100  1
  Be  Be1  1  0.15212758  0.38555770  0.02493326  1
  Be  Be2  1  0.61235962  0.84929961  0.01568174  1
  Be  Be3  1  0.11172340  0.12050338  0.90233074  1
  Be  Be4  1  0.72097652  0.52525768  0.07156190  1
  Be  Be5  1  0.83763540  0.78799866  0.83052923  1
  Be  Be6  1  0.04937239  0.25921336  0.39628180  1
  Be  Be7  1  0.25487654  0.02078746  0.32609940  1
  Be  Be8  1  0.75593981  0.58689191  0.55591618  1
  Be  Be9  1  0.16357763  0.20872411  0.22142356  1
  Be  Be10  1  0.36453575  0.16796965  0.49280081  1
  Be  Be11  1  0.80008419  0.29039986  0.42271499  1
  Be  Be12  1  0.32168534  0.66627628  0.18694479  1
  Be  Be13  1  0.92865663  0.08228239  0.60712502  1
  Be  Be14  1  0.17009859  0.47493169  0.32184731  1
  Be  Be15  1  0.52323658  0.86411023  0.24000474  1
  Be  Be16  1  0.94245005  0.59149732  0.09595025  1
  Be  Be17  1  0.84247522  0.14050569  0.16727926  1
  Be  Be18  1  0.78099030  0.95997776  0.33939052  1
  Be  Be19  1  0.61204047  0.79625775  0.74477694  1
  Be  Be20  1  0.59142272  0.27545436  0.22175477  1
  Be  Be21  1  0.52435773  0.61273942  0.97660779  1
  Be  Be22  1  0.99379304  0.00076579  0.31807114  1
  Be  Be23  1  0.17209005  0.92812889  0.09600464  1
  Be  Be24  1  0.39876432  0.94493698  0.58409930  1
  Be  Be25  1  0.56416619  0.39247484  0.47208646  1
  Be  Be26  1  0.18666883  0.71391296  0.62226902  1
  Be  Be27  1  0.20648601  0.15383089  0.71579975  1
  Be  Be28  1  0.82549325  0.52877087  0.77714470  1
  Be  Be29  1  0.55034877  0.00628870  0.45441004  1
  Be  Be30  1  0.06052977  0.40563075  0.80950450  1
  Be  Be31  1  0.72400854  0.06462653  0.87198073  1
  Be  Be32  1  0.51928265  0.57114608  0.22804790  1
  Be  Be33  1  0.92347462  0.81449025  0.12420320  1
  Be  Be34  1  0.34736870  0.73665185  0.74898462  1
  Be  Be35  1  0.25676257  0.44145519  0.77681375  1
  Be  Be36  1  0.92562542  0.80436666  0.55173892  1
  Be  Be37  1  0.88553327  0.31412435  0.97181016  1
  Be  Be38  1  0.66900779  0.29782464  0.90627224  1
  Be  Be39  1  0.78198983  0.29762944  0.67250307  1
  Be  Be40  1  0.12681437  0.74666670  0.34626231  1
  Be  Be41  1  0.39026979  0.66017877  0.45519480  1
  Be  Be42  1  0.38618902  0.09372762  0.06214242  1
  Be  Be43  1  0.18809461  0.68575222  0.93205080  1
  Be  Be44  1  0.61188835  0.11503835  0.65574723  1
  Be  Be45  1  0.06203749  0.90883341  0.80163205  1
  Be  Be46  1  0.96655616  0.61419081  0.40188640  1
  Be  Be47  1  0.41477115  0.19337756  0.80573711  1
  Be  Be48  1  0.02552213  0.39488194  0.58367958  1
  Be  Be49  1  0.45784987  0.38612378  0.00924932  1
  O  O50  1  0.40679821  0.37837103  0.82060094  1
  O  O51  1  0.49362795  0.69812081  0.82301505  1
  O  O52  1  0.70004992  0.89118225  0.88601491  1
  O  O53  1  0.07322226  0.06850322  0.71936372  1
  O  O54  1  0.95277743  0.49216332  0.70359902  1
  O  O55  1  0.94249243  0.24756180  0.51616174  1
  O  O56  1  0.33442616  0.79239577  0.58091440  1
  O  O57  1  0.06516019  0.97714460  0.96849446  1
  O  O58  1  0.58367291  0.16803339  0.81902649  1
  O  O59  1  0.83414928  0.67151993  0.46221952  1
  O  O60  1  0.98970857  0.67920756  0.23770700  1
  O  O61  1  0.21236978  0.19827522  0.40113285  1
  O  O62  1  0.15443097  0.33046983  0.69396703  1
  O  O63  1  0.56742414  0.42678407  0.30333371  1
  O  O64  1  0.13300918  0.91366517  0.30408621  1
  O  O65  1  0.17624492  0.37747923  0.18354920  1
  O  O66  1  0.64649391  0.68367436  0.08661027  1
  O  O67  1  0.39417109  0.99820162  0.41466585  1
  O  O68  1  0.86487981  0.45296751  0.08538316  1
  O  O69  1  0.28085170  0.57121037  0.68098438  1
  O  O70  1  0.48100786  0.52353488  0.54437485  1
  O  O71  1  0.92839150  0.84267688  0.72187882  1
  O  O72  1  0.72924054  0.40232193  0.53492083  1
  O  O73  1  0.78071363  0.37630862  0.82250728  1
  O  O74  1  0.61006873  0.43307547  0.99168599  1
  O  O75  1  0.28433037  0.14562573  0.89936974  1
  O  O76  1  0.16938258  0.50833611  0.91327830  1
  O  O77  1  0.06904016  0.72678816  0.50178634  1
  O  O78  1  0.73167848  0.66309916  0.71655522  1
  O  O79  1  0.25706368  0.07140528  0.15941951  1
  O  O80  1  0.90744028  0.97046058  0.46182153  1
  O  O81  1  0.00028077  0.17101516  0.24896081  1
  O  O82  1  0.74200692  0.21128133  0.28088049  1
  O  O83  1  0.79375094  0.17613466  0.99745853  1
  O  O84  1  0.22274482  0.76038451  0.08039507  1
  O  O85  1  0.56431614  0.93644354  0.62594401  1
  O  O86  1  0.53106929  0.20725318  0.51028135  1
  O  O87  1  0.41576448  0.55446363  0.07927924  1
  O  O88  1  0.63591674  0.93504175  0.34526315  1
  O  O89  1  0.25117241  0.61784970  0.33735320  1
  O  O90  1  0.85893656  0.95283931  0.19574693  1
  O  O91  1  0.05151246  0.44712346  0.41773741  1
  O  O92  1  0.47552226  0.23648422  0.10091655  1
  O  O93  1  0.34463739  0.11061486  0.65283653  1
  O  O94  1  0.19358873  0.78624569  0.79364062  1
  O  O95  1  0.49398697  0.93341891  0.08143886  1
  O  O96  1  0.91184644  0.71542217  0.98040338  1
  O  O97  1  0.03899423  0.28854980  0.93605010  1
  O  O98  1  0.45912338  0.71900723  0.29944742  1
  O  O99  1  0.77893057  0.12475797  0.67917085  1
