# generated using pymatgen
data_MgO
_symmetry_space_group_name_H-M   'P 1'
_cell_length_a   10.36242268
_cell_length_b   9.00632604
_cell_length_c   10.17451274
_cell_angle_alpha   96.13607518
_cell_angle_beta   88.32727032
_cell_angle_gamma   90.70177194
_symmetry_Int_Tables_number   1
_chemical_formula_structural   MgO
_chemical_formula_sum   'Mg40 O40'
_cell_volume   943.67807803
_cell_formula_units_Z   40
loop_
 _symmetry_equiv_pos_site_id
 _symmetry_equiv_pos_as_xyz
  1  'x, y, z'
loop_
 _atom_site_type_symbol
 _atom_site_label
 _atom_site_symmetry_multiplicity
 _atom_site_fract_x
 _atom_site_fract_y
 _atom_site_fract_z
 _atom_site_occupancy
  Mg  Mg0  1  0.25049033  0.59038888  0.74896139  1
  Mg  Mg1  1  0.99265183  0.58000798  0.92130118  1
  Mg  Mg2  1  0.92582133  0.31926350  0.06729464  1
  Mg  Mg3  1  0.44083665  0.64504199  0.28443560  1
  Mg  Mg4  1  0.58938210  0.63834796  0.06483529  1
  Mg  Mg5  1  0.43415251  0.77813069  0.89439210  1
  Mg  Mg6  1  0.39497811  0.08120071  0.05483564  1
  Mg  Mg7  1  0.69632859  0.62475937  0.81799146  1
  Mg  Mg8  1  0.51991920  0.12020863  0.77504779  1
  Mg  Mg9  1  0.90839672  0.98462532  0.85350805  1
  Mg  Mg10  1  0.11609124  0.25537078  0.84940195  1
  Mg  Mg11  1  0.48372685  0.41966770  0.80007226  1
  Mg  Mg12  1  0.85957439  0.69458892  0.58142284  1
  Mg  Mg13  1  0.47684047  0.29423762  0.30362647  1
  Mg  Mg14  1  0.77474330  0.28779716  0.79024309  1
  Mg  Mg15  1  0.01279891  0.58845609  0.27778179  1
  Mg  Mg16  1  0.73530722  0.97197485  0.61141773  1
  Mg  Mg17  1  0.67105602  0.99741225  0.97593625  1
  Mg  Mg18  1  0.74519315  0.10609634  0.23331463  1
  Mg  Mg19  1  0.21441945  0.97799313  0.31818211  1
  Mg  Mg20  1  0.50722358  0.51419246  0.56418779  1
  Mg  Mg21  1  0.98847422  0.99409232  0.15467942  1
  Mg  Mg22  1  0.44703645  0.80808578  0.62292404  1
  Mg  Mg23  1  0.22636274  0.74341030  0.10203524  1
  Mg  Mg24  1  0.95634984  0.31761538  0.38696913  1
  Mg  Mg25  1  0.84285084  0.75026538  0.09002489  1
  Mg  Mg26  1  0.22503591  0.44803622  0.51197607  1
  Mg  Mg27  1  0.47354690  0.01733595  0.41661939  1
  Mg  Mg28  1  0.28906540  0.16082479  0.58161413  1
  Mg  Mg29  1  0.01831972  0.08999786  0.54912681  1
  Mg  Mg30  1  0.54803316  0.32852970  0.04897462  1
  Mg  Mg31  1  0.73557379  0.48999007  0.31371038  1
  Mg  Mg32  1  0.98234928  0.42599113  0.66356770  1
  Mg  Mg33  1  0.28855322  0.42918030  0.03137651  1
  Mg  Mg34  1  0.22479551  0.74423564  0.43700032  1
  Mg  Mg35  1  0.16831584  0.92600356  0.92007523  1
  Mg  Mg36  1  0.70785068  0.82172764  0.36159336  1
  Mg  Mg37  1  0.11203186  0.85393697  0.66914815  1
  Mg  Mg38  1  0.18437347  0.25839043  0.24166733  1
  Mg  Mg39  1  0.69113790  0.25762704  0.51493879  1
  O  O40  1  0.83103014  0.90355585  0.23695155  1
  O  O41  1  0.40761795  0.27195559  0.91941461  1
  O  O42  1  0.63900988  0.45947331  0.93888637  1
  O  O43  1  0.66454617  0.05114419  0.42314063  1
  O  O44  1  0.61324946  0.30197492  0.69193995  1
  O  O45  1  0.66281750  0.77356387  0.55052370  1
  O  O46  1  0.44207366  0.02922405  0.61171699  1
  O  O47  1  0.13154983  0.75573214  0.27062658  1
  O  O48  1  0.51488279  0.63798415  0.74962061  1
  O  O49  1  0.86688679  0.59125815  0.74436458  1
  O  O50  1  0.18516982  0.55766858  0.92722669  1
  O  O51  1  0.82802207  0.30433486  0.24845836  1
  O  O52  1  0.35517902  0.40923739  0.65309662  1
  O  O53  1  0.13730747  0.28636360  0.05686341  1
  O  O54  1  0.00087989  0.82348269  0.97752890  1
  O  O55  1  0.37492089  0.62607382  0.47912496  1
  O  O56  1  0.12800232  0.27896222  0.62620126  1
  O  O57  1  0.41157681  0.42494869  0.18247104  1
  O  O58  1  0.11963263  0.62287093  0.61109052  1
  O  O59  1  0.40450823  0.67647077  0.05608338  1
  O  O60  1  0.28252619  0.80929694  0.78010820  1
  O  O61  1  0.72683195  0.06773693  0.79708277  1
  O  O62  1  0.37974099  0.85322444  0.32698834  1
  O  O63  1  0.92018238  0.55373404  0.10500215  1
  O  O64  1  0.49371746  0.97936935  0.91046869  1
  O  O65  1  0.33515564  0.17712200  0.37277870  1
  O  O66  1  0.87525343  0.25620671  0.56228972  1
  O  O67  1  0.91895296  0.90694683  0.62750419  1
  O  O68  1  0.56567606  0.15085125  0.14974043  1
  O  O69  1  0.17970030  0.95653973  0.51875507  1
  O  O70  1  0.63418803  0.65022669  0.24786961  1
  O  O71  1  0.05614196  0.11775034  0.31833300  1
  O  O72  1  0.23302278  0.97403453  0.09900290  1
  O  O73  1  0.85162515  0.09253973  0.03655303  1
  O  O74  1  0.59898055  0.39657196  0.42048405  1
  O  O75  1  0.12223957  0.43353224  0.35077983  1
  O  O76  1  0.69678245  0.77765924  0.97287188  1
  O  O77  1  0.94605440  0.35186050  0.85955852  1
  O  O78  1  0.08749350  0.04293089  0.80155231  1
  O  O79  1  0.88052424  0.56728809  0.41820933  1
