# generated using pymatgen
data_Al2O3
_symmetry_space_group_name_H-M   'P 1'
_cell_length_a   10.42298353
_cell_length_b   10.84424693
_cell_length_c   10.37297728
_cell_angle_alpha   92.20155179
_cell_angle_beta   80.85680707
_cell_angle_gamma   91.15927828
_symmetry_Int_Tables_number   1
_chemical_formula_structural   Al2O3
_chemical_formula_sum   'Al40 O60'
_cell_volume   1156.58162951
_cell_formula_units_Z   20
loop_
 _symmetry_equiv_pos_site_id
 _symmetry_equiv_pos_as_xyz
  1  'x, y, z'
loop_
 _atom_site_type_symbol
 _atom_site_label
 _atom_site_symmetry_multiplicity
 _atom_site_fract_x
 _atom_site_fract_y
 _atom_site_fract_z
 _atom_site_occupancy
  Al  Al0  1  0.25034127  0.54632607  0.50231353  1
  Al  Al1  1  0.70799091  0.11051864  0.82951653  1
  Al  Al2  1  0.97059495  0.66441533  0.30829810  1
  Al  Al3  1  0.37567858  0.64537970  0.84968649  1
  Al  Al4  1  0.39746170  0.05704472  0.55049797  1
  Al  Al5  1  0.85882261  0.34123346  0.72055743  1
  Al  Al6  1  0.14029843  0.25700095  0.58169794  1
  Al  Al7  1  0.42670777  0.16814214  0.88095227  1
  Al  Al8  1  0.13318734  0.24487491  0.28023291  1
  Al  Al9  1  0.94684701  0.57785151  0.57264581  1
  Al  Al10  1  0.73212023  0.60196248  0.82085305  1
  Al  Al11  1  0.89447136  0.09519932  0.03146908  1
  Al  Al12  1  0.66744265  0.98635711  0.50594528  1
  Al  Al13  1  0.68375905  0.89850856  0.95562293  1
  Al  Al14  1  0.07334067  0.69312527  0.75640805  1
  Al  Al15  1  0.81952241  0.32133191  0.13213380  1
  Al  Al16  1  0.04750197  0.26864853  0.89184677  1
  Al  Al17  1  0.09174413  0.95673302  0.28820713  1
  Al  Al18  1  0.54575808  0.93728193  0.26908616  1
  Al  Al19  1  0.46907891  0.92911579  0.75841764  1
  Al  Al20  1  0.42247184  0.24068601  0.40670186  1
  Al  Al21  1  0.20339995  0.73985320  0.04314536  1
  Al  Al22  1  0.47108169  0.64645037  0.34608292  1
  Al  Al23  1  0.84802674  0.11703983  0.29840388  1
  Al  Al24  1  0.30906268  0.82536314  0.46019766  1
  Al  Al25  1  0.89285337  0.08652389  0.55340254  1
  Al  Al26  1  0.12320266  0.94772665  0.60534764  1
  Al  Al27  1  0.59996463  0.40113359  0.96124052  1
  Al  Al28  1  0.60305332  0.42017411  0.42358490  1
  Al  Al29  1  0.52171542  0.67281999  0.61320188  1
  Al  Al30  1  0.36865650  0.39824105  0.23213024  1
  Al  Al31  1  0.76003724  0.78056987  0.58169168  1
  Al  Al32  1  0.54773368  0.68813660  0.04439129  1
  Al  Al33  1  0.92222172  0.38417855  0.39950632  1
  Al  Al34  1  0.20612130  0.05167234  0.03064802  1
  Al  Al35  1  0.74536580  0.54334379  0.19198673  1
  Al  Al36  1  0.28644323  0.34118392  0.99971770  1
  Al  Al37  1  0.07714271  0.47922916  0.10816625  1
  Al  Al38  1  0.84224005  0.85251507  0.23798602  1
  Al  Al39  1  0.39000863  0.38503190  0.66820668  1
  O  O40  1  0.31487770  0.18504312  0.02748844  1
  O  O41  1  0.30366564  0.92844939  0.60020447  1
  O  O42  1  0.88528311  0.69766685  0.48809526  1
  O  O43  1  0.67995382  0.66096763  0.67930076  1
  O  O44  1  0.90928175  0.47103784  0.12455120  1
  O  O45  1  0.86860485  0.42566166  0.57384620  1
  O  O46  1  0.05901147  0.28900052  0.44828632  1
  O  O47  1  0.88598013  0.25653370  0.96994241  1
  O  O48  1  0.99341468  0.82339357  0.28812437  1
  O  O49  1  0.58051997  0.62552842  0.19419097  1
  O  O50  1  0.58765040  0.22208771  0.89871955  1
  O  O51  1  0.05569882  0.09430178  0.60748593  1
  O  O52  1  0.80993073  0.18209201  0.70032276  1
  O  O53  1  0.42285290  0.54195814  0.71217007  1
  O  O54  1  0.80175092  0.94176209  0.59282565  1
  O  O55  1  0.42790116  0.40297599  0.05801358  1
  O  O56  1  0.44413590  0.77004680  0.75662200  1
  O  O57  1  0.57452481  0.88809251  0.10375024  1
  O  O58  1  0.74424899  0.42944432  0.82769717  1
  O  O59  1  0.18967145  0.38205598  0.17320111  1
  O  O60  1  0.29811197  0.26281060  0.31486539  1
  O  O61  1  0.06064759  0.84579376  0.71972780  1
  O  O62  1  0.16949968  0.89806832  0.42568095  1
  O  O63  1  0.76420372  0.16610284  0.17068292  1
  O  O64  1  0.80027686  0.02028178  0.92477013  1
  O  O65  1  0.60393152  0.81952067  0.53888150  1
  O  O66  1  0.56411710  0.57775713  0.45824040  1
  O  O67  1  0.01451569  0.52553578  0.37700906  1
  O  O68  1  0.19185424  0.67563971  0.87381977  1
  O  O69  1  0.56440445  0.56274157  0.91824402  1
  O  O70  1  0.69979750  0.93040415  0.32708029  1
  O  O71  1  0.33234072  0.53946871  0.33202765  1
  O  O72  1  0.82163949  0.68653810  0.23076915  1
  O  O73  1  0.91075107  0.62196553  0.75673145  1
  O  O74  1  0.10558835  0.63637491  0.14705132  1
  O  O75  1  0.76289987  0.43011334  0.33776602  1
  O  O76  1  0.96420874  0.04652971  0.38573282  1
  O  O77  1  0.35357615  0.68389713  0.51863013  1
  O  O78  1  0.07449355  0.11770521  0.95590405  1
  O  O79  1  0.70801880  0.73834256  0.94354616  1
  O  O80  1  0.37506498  0.69812806  0.01919753  1
  O  O81  1  0.94915559  0.26915623  0.25857886  1
  O  O82  1  0.30265480  0.18491154  0.55576971  1
  O  O83  1  0.47459777  0.06827867  0.37994863  1
  O  O84  1  0.53022983  0.04040109  0.62977783  1
  O  O85  1  0.18805712  0.89577589  0.08613880  1
  O  O86  1  0.43713584  0.81373014  0.32786946  1
  O  O87  1  0.75250932  0.13402814  0.46157578  1
  O  O88  1  0.13772748  0.39497488  0.95266755  1
  O  O89  1  0.15231547  0.09353033  0.20668346  1
  O  O90  1  0.11206829  0.61212707  0.59557402  1
  O  O91  1  0.35129526  0.02245065  0.85501569  1
  O  O92  1  0.51211496  0.35618433  0.30558022  1
  O  O93  1  0.60772265  0.96769494  0.83440345  1
  O  O94  1  0.36366907  0.30420504  0.81683265  1
  O  O95  1  0.03195684  0.31211202  0.73163538  1
  O  O96  1  0.68836925  0.41514958  0.09509834  1
  O  O97  1  0.51391464  0.32349004  0.54291914  1
  O  O98  1  0.25577626  0.40487902  0.58031926  1
  O  O99  1  0.90523610  0.98158444  0.14899382  1
