# generated using pymatgen
data_Ba3CN3
_symmetry_space_group_name_H-M   'P 1'
_cell_length_a   8.88024559
_cell_length_b   8.87972251
_cell_length_c   4.84286091
_cell_angle_alpha   90.00000000
_cell_angle_beta   90.00000000
_cell_angle_gamma   119.99625047
_symmetry_Int_Tables_number   1
_chemical_formula_structural   Ba3CN3
_chemical_formula_sum   'Ba6 C2 N6'
_cell_volume   330.72985969
_cell_formula_units_Z   2
loop_
 _symmetry_equiv_pos_site_id
 _symmetry_equiv_pos_as_xyz
  1  'x, y, z'
loop_
 _atom_site_type_symbol
 _atom_site_label
 _atom_site_symmetry_multiplicity
 _atom_site_fract_x
 _atom_site_fract_y
 _atom_site_fract_z
 _atom_site_occupancy
  Ba  Ba0  1  0.95726568  0.63961996  0.25000000  1
  Ba  Ba1  1  0.68236642  0.04274634  0.25000000  1
  Ba  Ba2  1  0.36038303  0.31763138  0.25000000  1
  Ba  Ba3  1  0.04273432  0.36038004  0.75000000  1
  Ba  Ba4  1  0.31763358  0.95725366  0.75000000  1
  Ba  Ba5  1  0.63961697  0.68236862  0.75000000  1
  C  C6  1  0.66666462  0.33327597  0.75000000  1
  C  C7  1  0.33333538  0.66672403  0.25000000  1
  N  N8  1  0.81918215  0.49572327  0.75000000  1
  N  N9  1  0.67653587  0.18087627  0.75000000  1
  N  N10  1  0.50428560  0.32346967  0.75000000  1
  N  N11  1  0.18081785  0.50427673  0.25000000  1
  N  N12  1  0.32346413  0.81912373  0.25000000  1
  N  N13  1  0.49571440  0.67653033  0.25000000  1
