# generated using pymatgen
data_Al(PbN)3
_symmetry_space_group_name_H-M   'P 1'
_cell_length_a   10.33688238
_cell_length_b   10.33527747
_cell_length_c   3.61581853
_cell_angle_alpha   90.00000000
_cell_angle_beta   90.00000000
_cell_angle_gamma   120.02192422
_symmetry_Int_Tables_number   1
_chemical_formula_structural   Al(PbN)3
_chemical_formula_sum   'Al2 Pb6 N6'
_cell_volume   334.46677689
_cell_formula_units_Z   2
loop_
 _symmetry_equiv_pos_site_id
 _symmetry_equiv_pos_as_xyz
  1  'x, y, z'
loop_
 _atom_site_type_symbol
 _atom_site_label
 _atom_site_symmetry_multiplicity
 _atom_site_fract_x
 _atom_site_fract_y
 _atom_site_fract_z
 _atom_site_occupancy
  Al  Al0  1  0.66663211  0.33344074  0.75000000  1
  Al  Al1  1  0.33336789  0.66655926  0.25000000  1
  Pb  Pb2  1  0.97627163  0.63417874  0.25000000  1
  Pb  Pb3  1  0.65809159  0.02367181  0.25000000  1
  Pb  Pb4  1  0.36569836  0.34211707  0.25000000  1
  Pb  Pb5  1  0.02372837  0.36582126  0.75000000  1
  Pb  Pb6  1  0.34190841  0.97632819  0.75000000  1
  Pb  Pb7  1  0.63430164  0.65788293  0.75000000  1
  N  N8  1  0.86543740  0.46828407  0.75000000  1
  N  N9  1  0.60288953  0.13449006  0.75000000  1
  N  N10  1  0.53147763  0.39670645  0.75000000  1
  N  N11  1  0.13456260  0.53171593  0.25000000  1
  N  N12  1  0.39711047  0.86550994  0.25000000  1
  N  N13  1  0.46852237  0.60329355  0.25000000  1
