# generated using pymatgen
data_Ba2CdN2
_symmetry_space_group_name_H-M   'P 1'
_cell_length_a   4.24101093
_cell_length_b   4.24018513
_cell_length_c   7.56739592
_cell_angle_alpha   106.26984036
_cell_angle_beta   106.27309711
_cell_angle_gamma   90.00000000
_symmetry_Int_Tables_number   1
_chemical_formula_structural   Ba2CdN2
_chemical_formula_sum   'Ba2 Cd1 N2'
_cell_volume   124.94287819
_cell_formula_units_Z   1
loop_
 _symmetry_equiv_pos_site_id
 _symmetry_equiv_pos_as_xyz
  1  'x, y, z'
loop_
 _atom_site_type_symbol
 _atom_site_label
 _atom_site_symmetry_multiplicity
 _atom_site_fract_x
 _atom_site_fract_y
 _atom_site_fract_z
 _atom_site_occupancy
  Ba  Ba0  1  0.83872338  0.83872338  0.17744576  1
  Ba  Ba1  1  0.16127662  0.16127662  0.82255424  1
  Cd  Cd2  1  0.50000000  0.50000000  0.50000000  1
  N  N3  1  0.35052382  0.35052382  0.20104764  1
  N  N4  1  0.64947618  0.64947618  0.79895236  1
