# generated using pymatgen
data_Al2O3
_symmetry_space_group_name_H-M   'P 1'
_cell_length_a   10.21921842
_cell_length_b   10.31527322
_cell_length_c   10.68568557
_cell_angle_alpha   88.90924951
_cell_angle_beta   96.30388001
_cell_angle_gamma   85.61786964
_symmetry_Int_Tables_number   1
_chemical_formula_structural   Al2O3
_chemical_formula_sum   'Al40 O60'
_cell_volume   1115.90972527
_cell_formula_units_Z   20
loop_
 _symmetry_equiv_pos_site_id
 _symmetry_equiv_pos_as_xyz
  1  'x, y, z'
loop_
 _atom_site_type_symbol
 _atom_site_label
 _atom_site_symmetry_multiplicity
 _atom_site_fract_x
 _atom_site_fract_y
 _atom_site_fract_z
 _atom_site_occupancy
  Al  Al0  1  0.35026925  0.57143286  0.38194990  1
  Al  Al1  1  0.43395772  0.00766938  0.63556594  1
  Al  Al2  1  0.92063391  0.70797023  0.55525582  1
  Al  Al3  1  0.97245037  0.63085844  0.94360627  1
  Al  Al4  1  0.37318246  0.86441435  0.87411822  1
  Al  Al5  1  0.94500063  0.13506313  0.66060335  1
  Al  Al6  1  0.33718251  0.29647509  0.53807668  1
  Al  Al7  1  0.94216003  0.97130507  0.96970071  1
  Al  Al8  1  0.19166287  0.76392020  0.05430096  1
  Al  Al9  1  0.07046399  0.39392868  0.68812159  1
  Al  Al10  1  0.78541638  0.67026083  0.19983200  1
  Al  Al11  1  0.70085113  0.22861479  0.08518437  1
  Al  Al12  1  0.71800934  0.96747223  0.22996512  1
  Al  Al13  1  0.45318596  0.70846629  0.62563471  1
  Al  Al14  1  0.09321950  0.86350613  0.77151819  1
  Al  Al15  1  0.97575790  0.18012430  0.10512084  1
  Al  Al16  1  0.86356213  0.37181636  0.88647603  1
  Al  Al17  1  0.84529587  0.20562995  0.38226896  1
  Al  Al18  1  0.46321731  0.04306718  0.36150176  1
  Al  Al19  1  0.41516461  0.30926726  0.01433376  1
  Al  Al20  1  0.48013618  0.30277130  0.29174474  1
  Al  Al21  1  0.78794843  0.83081950  0.76976678  1
  Al  Al22  1  0.49742043  0.77406394  0.32337556  1
  Al  Al23  1  0.22524991  0.91507691  0.24262089  1
  Al  Al24  1  0.17901071  0.59381904  0.61404210  1
  Al  Al25  1  0.14262508  0.12551444  0.44094893  1
  Al  Al26  1  0.72331926  0.98865518  0.52231916  1
  Al  Al27  1  0.47362192  0.53698780  0.16348153  1
  Al  Al28  1  0.71970385  0.51873327  0.38751228  1
  Al  Al29  1  0.67281820  0.61088062  0.94353333  1
  Al  Al30  1  0.12815559  0.44828186  0.09847495  1
  Al  Al31  1  0.77840613  0.54623959  0.70067616  1
  Al  Al32  1  0.30821043  0.55689813  0.84049762  1
  Al  Al33  1  0.20350836  0.29310592  0.29140024  1
  Al  Al34  1  0.17605848  0.12717466  0.87241317  1
  Al  Al35  1  0.04082539  0.57321259  0.37573852  1
  Al  Al36  1  0.47595018  0.26162110  0.79542784  1
  Al  Al37  1  0.98699693  0.87173252  0.27891471  1
  Al  Al38  1  0.60850023  0.03339599  0.92798583  1
  Al  Al39  1  0.64335489  0.25862036  0.54282189  1
  O  O40  1  0.57335144  0.92686477  0.28720764  1
  O  O41  1  0.31982778  0.20397298  0.91846404  1
  O  O42  1  0.79596811  0.84405629  0.60149776  1
  O  O43  1  0.62295053  0.66827382  0.69526109  1
  O  O44  1  0.98648544  0.45262430  0.96979276  1
  O  O45  1  0.07817860  0.21936201  0.74050888  1
  O  O46  1  0.30800391  0.11864474  0.54666642  1
  O  O47  1  0.58781284  0.22021222  0.93185102  1
  O  O48  1  0.95342058  0.00722570  0.13626372  1
  O  O49  1  0.37840000  0.66056938  0.23682881  1
  O  O50  1  0.50503760  0.08794544  0.76418560  1
  O  O51  1  0.10808991  0.98685691  0.34887820  1
  O  O52  1  0.76315226  0.13461041  0.61442560  1
  O  O53  1  0.75483723  0.34190587  0.45433092  1
  O  O54  1  0.55029985  0.97881924  0.52563227  1
  O  O55  1  0.56475360  0.58019436  0.04692963  1
  O  O56  1  0.82457734  0.83201867  0.20966588  1
  O  O57  1  0.83521346  0.24916480  0.99050362  1
  O  O58  1  0.71839765  0.48082642  0.84669218  1
  O  O59  1  0.35870180  0.17581432  0.26724795  1
  O  O60  1  0.82080945  0.65259007  0.03462128  1
  O  O61  1  0.22433243  0.96584172  0.81872312  1
  O  O62  1  0.12958095  0.60993904  0.03907927  1
  O  O63  1  0.55057979  0.29508229  0.14274161  1
  O  O64  1  0.40324856  0.85450047  0.69586655  1
  O  O65  1  0.34763280  0.60551067  0.68721916  1
  O  O66  1  0.77127920  0.59220909  0.53832520  1
  O  O67  1  0.12447906  0.46838243  0.26759072  1
  O  O68  1  0.22138547  0.38109180  0.61399816  1
  O  O69  1  0.30149859  0.71565515  0.91481274  1
  O  O70  1  0.67979707  0.05976189  0.09317153  1
  O  O71  1  0.33146112  0.42652429  0.11311378  1
  O  O72  1  0.01728122  0.53426964  0.55009779  1
  O  O73  1  0.89194844  0.39421868  0.72151270  1
  O  O74  1  0.63559340  0.74309236  0.81733818  1
  O  O75  1  0.20815464  0.61586523  0.45122192  1
  O  O76  1  0.84471265  0.23554836  0.21989735  1
  O  O77  1  0.46855833  0.67369351  0.46808109  1
  O  O78  1  0.26881190  0.90930610  0.08720712  1
  O  O79  1  0.64686940  0.67392435  0.29072120  1
  O  O80  1  0.11650465  0.78592891  0.20793070  1
  O  O81  1  0.11614210  0.27365903  0.13519179  1
  O  O82  1  0.03325891  0.81762932  0.92911100  1
  O  O83  1  0.50465957  0.30786202  0.62953297  1
  O  O84  1  0.98573827  0.16438656  0.50245315  1
  O  O85  1  0.36277940  0.90335981  0.35569268  1
  O  O86  1  0.79080315  0.03612473  0.37870033  1
  O  O87  1  0.55408376  0.46040188  0.31240847  1
  O  O88  1  0.14408750  0.52208103  0.78268113  1
  O  O89  1  0.08252090  0.75072246  0.65067208  1
  O  O90  1  0.87901160  0.66954353  0.78495957  1
  O  O91  1  0.96298654  0.98162084  0.73419459  1
  O  O92  1  0.86623253  0.53926808  0.30002516  1
  O  O93  1  0.51586270  0.90436061  0.95651401  1
  O  O94  1  0.41864876  0.41470597  0.87252609  1
  O  O95  1  0.04189526  0.10540961  0.95839229  1
  O  O96  1  0.97017848  0.74624629  0.40412657  1
  O  O97  1  0.56371105  0.18806214  0.40781747  1
  O  O98  1  0.35412026  0.38652894  0.39349043  1
  O  O99  1  0.77578475  0.95306399  0.88596668  1
