# generated using pymatgen
data_Ga2O3
_symmetry_space_group_name_H-M   'P 1'
_cell_length_a   10.25473826
_cell_length_b   10.23756173
_cell_length_c   10.06304534
_cell_angle_alpha   89.52888202
_cell_angle_beta   86.07304302
_cell_angle_gamma   89.15665379
_symmetry_Int_Tables_number   1
_chemical_formula_structural   Ga2O3
_chemical_formula_sum   'Ga32 O48'
_cell_volume   1053.83177149
_cell_formula_units_Z   16
loop_
 _symmetry_equiv_pos_site_id
 _symmetry_equiv_pos_as_xyz
  1  'x, y, z'
loop_
 _atom_site_type_symbol
 _atom_site_label
 _atom_site_symmetry_multiplicity
 _atom_site_fract_x
 _atom_site_fract_y
 _atom_site_fract_z
 _atom_site_occupancy
  Ga  Ga0  1  0.24932079  0.80386474  0.03609035  1
  Ga  Ga1  1  0.62187232  0.36525857  0.77272069  1
  Ga  Ga2  1  0.36215133  0.85261197  0.32653946  1
  Ga  Ga3  1  0.15696921  0.04317296  0.21190863  1
  Ga  Ga4  1  0.51645410  0.62636429  0.78473459  1
  Ga  Ga5  1  0.02645582  0.39828054  0.66843127  1
  Ga  Ga6  1  0.80191113  0.67591068  0.90333677  1
  Ga  Ga7  1  0.97142675  0.76997862  0.12933800  1
  Ga  Ga8  1  0.90497229  0.88796911  0.66127433  1
  Ga  Ga9  1  0.61179962  0.94421266  0.22082056  1
  Ga  Ga10  1  0.77640413  0.16043700  0.57718474  1
  Ga  Ga11  1  0.37989175  0.16800150  0.33037369  1
  Ga  Ga12  1  0.85066801  0.50192810  0.23382287  1
  Ga  Ga13  1  0.81270622  0.59469053  0.59249141  1
  Ga  Ga14  1  0.65603193  0.32692817  0.35084658  1
  Ga  Ga15  1  0.15485467  0.92587379  0.52723076  1
  Ga  Ga16  1  0.39297168  0.87398289  0.75801977  1
  Ga  Ga17  1  0.54862705  0.35000752  0.08575424  1
  Ga  Ga18  1  0.31229305  0.34355680  0.87855415  1
  Ga  Ga19  1  0.07750839  0.53184285  0.92926030  1
  Ga  Ga20  1  0.44146694  0.06306529  0.99312157  1
  Ga  Ga21  1  0.35608567  0.12747000  0.66201210  1
  Ga  Ga22  1  0.07665993  0.64625979  0.41083440  1
  Ga  Ga23  1  0.63565635  0.85494195  0.53477196  1
  Ga  Ga24  1  0.14750140  0.36414638  0.18597805  1
  Ga  Ga25  1  0.53901809  0.65836535  0.09315932  1
  Ga  Ga26  1  0.85079286  0.31412747  0.02096536  1
  Ga  Ga27  1  0.98914616  0.14151156  0.77567548  1
  Ga  Ga28  1  0.78348421  0.99327535  0.98113793  1
  Ga  Ga29  1  0.62853102  0.62522417  0.37191760  1
  Ga  Ga30  1  0.34739921  0.56458542  0.29844548  1
  Ga  Ga31  1  0.86019688  0.08949730  0.26498674  1
  O  O32  1  0.35838110  0.74257006  0.87848536  1
  O  O33  1  0.13269368  0.50151353  0.75421151  1
  O  O34  1  0.72454261  0.38413885  0.16848799  1
  O  O35  1  0.68444629  0.52911724  0.71220208  1
  O  O36  1  0.52641627  0.77452906  0.66772356  1
  O  O37  1  0.44921499  0.02429939  0.22564165  1
  O  O38  1  0.47715487  0.54263046  0.41105513  1
  O  O39  1  0.60511264  0.96945090  0.02762101  1
  O  O40  1  0.85313391  0.72569707  0.72881998  1
  O  O41  1  0.02441252  0.80399716  0.51358566  1
  O  O42  1  0.75206003  0.18098614  0.39440994  1
  O  O43  1  0.24190097  0.21232243  0.21961173  1
  O  O44  1  0.76391429  0.97261525  0.57399117  1
  O  O45  1  0.78051402  0.92979066  0.25483720  1
  O  O46  1  0.85527661  0.82112871  0.00294088  1
  O  O47  1  0.74672049  0.47371498  0.40584206  1
  O  O48  1  0.25461813  0.71184930  0.39867493  1
  O  O49  1  0.05109660  0.99945218  0.67049306  1
  O  O50  1  0.40833335  0.19286847  0.50193733  1
  O  O51  1  0.23817952  0.23408071  0.75850141  1
  O  O52  1  0.18390333  0.49023027  0.31094492  1
  O  O53  1  0.24520384  0.98887815  0.37264728  1
  O  O54  1  0.95170640  0.64830156  0.26967384  1
  O  O55  1  0.01823782  0.10123529  0.32195747  1
  O  O56  1  0.10622089  0.87254467  0.17287421  1
  O  O57  1  0.61868871  0.67638721  0.92590437  1
  O  O58  1  0.84288821  0.02977925  0.80939076  1
  O  O59  1  0.96868587  0.36803722  0.17062055  1
  O  O60  1  0.38437042  0.75128662  0.16359153  1
  O  O61  1  0.43009965  0.24633048  0.98838609  1
  O  O62  1  0.27642566  0.98931793  0.03193777  1
  O  O63  1  0.93863160  0.24571600  0.62435502  1
  O  O64  1  0.44794857  0.50475677  0.12321804  1
  O  O65  1  0.10735846  0.69220529  0.00689654  1
  O  O66  1  0.97646875  0.52364727  0.53545356  1
  O  O67  1  0.53729467  0.84325820  0.38143051  1
  O  O68  1  0.45332767  0.03897771  0.79944478  1
  O  O69  1  0.30470043  0.94662006  0.62200069  1
  O  O70  1  0.68049440  0.32601288  0.93810112  1
  O  O71  1  0.45281698  0.45320132  0.80467023  1
  O  O72  1  0.98129715  0.28816086  0.87956034  1
  O  O73  1  0.89266051  0.53479201  0.97229104  1
  O  O74  1  0.63327171  0.24853711  0.64124291  1
  O  O75  1  0.73797663  0.71337618  0.48093466  1
  O  O76  1  0.51480894  0.27850227  0.26103529  1
  O  O77  1  0.19895328  0.42064583  0.00964914  1
  O  O78  1  0.68085031  0.66409232  0.19631888  1
  O  O79  1  0.84200027  0.13204938  0.08193470  1
