# generated using pymatgen
data_Al2O3
_symmetry_space_group_name_H-M   'P 1'
_cell_length_a   5.71573438
_cell_length_b   5.66532992
_cell_length_c   16.59505264
_cell_angle_alpha   62.92271992
_cell_angle_beta   66.36536334
_cell_angle_gamma   58.33731684
_symmetry_Int_Tables_number   1
_chemical_formula_structural   Al2O3
_chemical_formula_sum   'Al16 O24'
_cell_volume   397.84514968
_cell_formula_units_Z   8
loop_
 _symmetry_equiv_pos_site_id
 _symmetry_equiv_pos_as_xyz
  1  'x, y, z'
loop_
 _atom_site_type_symbol
 _atom_site_label
 _atom_site_symmetry_multiplicity
 _atom_site_fract_x
 _atom_site_fract_y
 _atom_site_fract_z
 _atom_site_occupancy
  Al  Al0  1  0.09555194  0.94485246  0.14951731  1
  Al  Al1  1  0.33588752  0.51866375  0.00987824  1
  Al  Al2  1  0.57681378  0.43036637  0.15830157  1
  Al  Al3  1  0.48331127  0.03443129  0.50870059  1
  Al  Al4  1  0.48042958  0.58397407  0.31692523  1
  Al  Al5  1  0.70064277  0.46624588  0.48191681  1
  Al  Al6  1  0.03729937  0.27770746  0.29455667  1
  Al  Al7  1  0.63962972  0.96342152  0.32886807  1
  Al  Al8  1  0.22135134  0.09412552  0.83091572  1
  Al  Al9  1  0.36424338  0.52702942  0.66467678  1
  Al  Al10  1  0.43258202  0.53757169  0.82838813  1
  Al  Al11  1  0.07963702  0.78580964  0.49367565  1
  Al  Al12  1  0.92841170  0.39361383  0.64476650  1
  Al  Al13  1  0.81088420  0.87985352  0.79333926  1
  Al  Al14  1  0.94910220  0.41723555  0.98827066  1
  Al  Al15  1  0.62320888  0.97154802  0.99299110  1
  O  O16  1  0.27814916  0.18497180  0.05645849  1
  O  O17  1  0.39464179  0.18190248  0.24842389  1
  O  O18  1  0.29821151  0.66335548  0.08859145  1
  O  O19  1  0.80296900  0.17317291  0.08736679  1
  O  O20  1  0.35173029  0.70490759  0.22095429  1
  O  O21  1  0.44577542  0.24995479  0.38820420  1
  O  O22  1  0.87436965  0.16531303  0.24150368  1
  O  O23  1  0.24736499  0.35313211  0.55066010  1
  O  O24  1  0.40569507  0.72981325  0.40395093  1
  O  O25  1  0.80523777  0.63616976  0.07095445  1
  O  O26  1  0.80862000  0.65350594  0.27034774  1
  O  O27  1  0.90827790  0.18333093  0.42477075  1
  O  O28  1  0.28798304  0.80898706  0.55431030  1
  O  O29  1  0.12016279  0.35549201  0.72306741  1
  O  O30  1  0.71839538  0.32314380  0.60064118  1
  O  O31  1  0.20887359  0.29352058  0.89174182  1
  O  O32  1  0.17707910  0.76426380  0.74208905  1
  O  O33  1  0.82723891  0.74350129  0.42640527  1
  O  O34  1  0.75678834  0.79444408  0.58288695  1
  O  O35  1  0.66374372  0.29133047  0.75546675  1
  O  O36  1  0.16411471  0.77438131  0.91385820  1
  O  O37  1  0.63911419  0.31814282  0.92564682  1
  O  O38  1  0.55193824  0.83749246  0.77766713  1
  O  O39  1  0.70874175  0.77052224  0.91814305  1
