# generated using pymatgen
data_Fe2O3
_symmetry_space_group_name_H-M   'P 1'
_cell_length_a   8.64756077
_cell_length_b   10.93536246
_cell_length_c   10.37500235
_cell_angle_alpha   89.30778653
_cell_angle_beta   91.84781119
_cell_angle_gamma   93.81732473
_symmetry_Int_Tables_number   1
_chemical_formula_structural   Fe2O3
_chemical_formula_sum   'Fe32 O48'
_cell_volume   978.36963281
_cell_formula_units_Z   16
loop_
 _symmetry_equiv_pos_site_id
 _symmetry_equiv_pos_as_xyz
  1  'x, y, z'
loop_
 _atom_site_type_symbol
 _atom_site_label
 _atom_site_symmetry_multiplicity
 _atom_site_fract_x
 _atom_site_fract_y
 _atom_site_fract_z
 _atom_site_occupancy
  Fe  Fe0  1  0.63697188  0.93143746  0.04951627  1
  Fe  Fe1  1  0.30062168  0.92826040  0.52864073  1
  Fe  Fe2  1  0.94264298  0.75960153  0.59500505  1
  Fe  Fe3  1  0.53679417  0.17606880  0.54465522  1
  Fe  Fe4  1  0.67800622  0.38322515  0.23254140  1
  Fe  Fe5  1  0.28753963  0.42515623  0.56957496  1
  Fe  Fe6  1  0.41733534  0.19352007  0.79181025  1
  Fe  Fe7  1  0.61664779  0.59665059  0.04937802  1
  Fe  Fe8  1  0.06802677  0.04833036  0.66429394  1
  Fe  Fe9  1  0.34785875  0.42624745  0.90226503  1
  Fe  Fe10  1  0.92583683  0.08179554  0.07284944  1
  Fe  Fe11  1  0.72415948  0.99345824  0.80523883  1
  Fe  Fe12  1  0.63799734  0.53879231  0.78561845  1
  Fe  Fe13  1  0.17149860  0.19122300  0.36553400  1
  Fe  Fe14  1  0.30200339  0.47748280  0.24420245  1
  Fe  Fe15  1  0.30151022  0.96789840  0.91928963  1
  Fe  Fe16  1  0.22982185  0.20689375  0.03144648  1
  Fe  Fe17  1  0.68731138  0.47279027  0.53443205  1
  Fe  Fe18  1  0.41602140  0.68268392  0.49879657  1
  Fe  Fe19  1  0.01679319  0.43791361  0.06695079  1
  Fe  Fe20  1  0.80486308  0.79787953  0.27435899  1
  Fe  Fe21  1  0.00128974  0.50722379  0.41879509  1
  Fe  Fe22  1  0.12828211  0.70303277  0.28440881  1
  Fe  Fe23  1  0.46732781  0.09440811  0.27007497  1
  Fe  Fe24  1  0.76110316  0.29130696  0.93806919  1
  Fe  Fe25  1  0.23871611  0.66447130  0.85617560  1
  Fe  Fe26  1  0.94934682  0.75552370  0.97256560  1
  Fe  Fe27  1  0.89864806  0.26151965  0.63868725  1
  Fe  Fe28  1  0.83566046  0.06856162  0.36088653  1
  Fe  Fe29  1  0.44877957  0.78615861  0.24197702  1
  Fe  Fe30  1  0.00314687  0.51185097  0.74176721  1
  Fe  Fe31  1  0.65732230  0.88333759  0.52338594  1
  O  O32  1  0.71009540  0.29884047  0.54628141  1
  O  O33  1  0.86281876  0.36864160  0.78848358  1
  O  O34  1  0.49859427  0.53716136  0.58978230  1
  O  O35  1  0.97353043  0.26547565  0.02686577  1
  O  O36  1  0.78130565  0.47568039  0.37145310  1
  O  O37  1  0.78865095  0.97280745  0.19718721  1
  O  O38  1  0.34195070  0.08692020  0.43928178  1
  O  O39  1  0.27314428  0.04081825  0.73951410  1
  O  O40  1  0.30233180  0.65798811  0.18544735  1
  O  O41  1  0.24243248  0.49412156  0.74867286  1
  O  O42  1  0.63322810  0.21738187  0.26707960  1
  O  O43  1  0.72741641  0.11472175  0.97253328  1
  O  O44  1  0.44227487  0.59761183  0.91865213  1
  O  O45  1  0.01430429  0.15331149  0.51253805  1
  O  O46  1  0.23197576  0.27164898  0.86069389  1
  O  O47  1  0.90326421  0.11235506  0.74704956  1
  O  O48  1  0.41074926  0.13048224  0.97261131  1
  O  O49  1  0.24805964  0.39512243  0.07382038  1
  O  O50  1  0.81320236  0.58312075  0.64413166  1
  O  O51  1  0.58552544  0.10765043  0.71027515  1
  O  O52  1  0.28941353  0.81549742  0.37730594  1
  O  O53  1  0.06450712  0.50218391  0.24103153  1
  O  O54  1  0.63064597  0.04462081  0.44482372  1
  O  O55  1  0.24485039  0.57203111  0.44329157  1
  O  O56  1  0.96993739  0.75502236  0.16326785  1
  O  O57  1  0.78444578  0.86317430  0.67582822  1
  O  O58  1  0.09729773  0.89808704  0.58089630  1
  O  O59  1  0.38819921  0.27898481  0.62317607  1
  O  O60  1  0.08835605  0.68246546  0.70831015  1
  O  O61  1  0.51736650  0.91403602  0.89284946  1
  O  O62  1  0.77581410  0.43033835  0.07169654  1
  O  O63  1  0.27377226  0.35203348  0.38588904  1
  O  O64  1  0.55407104  0.36498131  0.86565736  1
  O  O65  1  0.85404330  0.89658411  0.42624012  1
  O  O66  1  0.12263410  0.04737273  0.00632630  1
  O  O67  1  0.83974705  0.90694220  0.95170169  1
  O  O68  1  0.98878472  0.15010677  0.25777641  1
  O  O69  1  0.05911204  0.56732916  0.93629691  1
  O  O70  1  0.29049766  0.17441667  0.20596426  1
  O  O71  1  0.59465197  0.74656405  0.39224223  1
  O  O72  1  0.45898598  0.94839225  0.16854926  1
  O  O73  1  0.96859235  0.68356584  0.41932570  1
  O  O74  1  0.03731079  0.40817596  0.57427249  1
  O  O75  1  0.45356835  0.82758228  0.60315219  1
  O  O76  1  0.63384289  0.75510411  0.13755017  1
  O  O77  1  0.52100423  0.49333510  0.19442652  1
  O  O78  1  0.17410647  0.81040405  0.93031529  1
  O  O79  1  0.76575398  0.64594898  0.92323945  1
