# generated using pymatgen
data_Al2O3
_symmetry_space_group_name_H-M   'P 1'
_cell_length_a   6.19252542
_cell_length_b   7.44454620
_cell_length_c   21.28824053
_cell_angle_alpha   96.23991450
_cell_angle_beta   92.71464374
_cell_angle_gamma   114.60423033
_symmetry_Int_Tables_number   1
_chemical_formula_structural   Al2O3
_chemical_formula_sum   'Al32 O48'
_cell_volume   882.33798617
_cell_formula_units_Z   16
loop_
 _symmetry_equiv_pos_site_id
 _symmetry_equiv_pos_as_xyz
  1  'x, y, z'
loop_
 _atom_site_type_symbol
 _atom_site_label
 _atom_site_symmetry_multiplicity
 _atom_site_fract_x
 _atom_site_fract_y
 _atom_site_fract_z
 _atom_site_occupancy
  Al  Al0  1  0.42469826  0.90232994  0.18046036  1
  Al  Al1  1  0.24480640  0.38076870  0.56708544  1
  Al  Al2  1  0.19181107  0.47246819  0.94308444  1
  Al  Al3  1  0.53141284  0.52318855  0.77436056  1
  Al  Al4  1  0.84838938  0.24421670  0.20661527  1
  Al  Al5  1  0.93039959  0.52136483  0.60064868  1
  Al  Al6  1  0.41256640  0.89154000  0.41592352  1
  Al  Al7  1  0.62623112  0.66571311  0.10926521  1
  Al  Al8  1  0.61601921  0.87598788  0.90980802  1
  Al  Al9  1  0.23260611  0.08838592  0.29738337  1
  Al  Al10  1  0.23031688  0.90434805  0.58398697  1
  Al  Al11  1  0.22136741  0.06320655  0.95223142  1
  Al  Al12  1  0.59062805  0.75211766  0.62342631  1
  Al  Al13  1  0.38699271  0.08626040  0.83137151  1
  Al  Al14  1  0.37837742  0.35534389  0.19464839  1
  Al  Al15  1  0.33409732  0.16184099  0.48299078  1
  Al  Al16  1  0.72389662  0.60003359  0.50446720  1
  Al  Al17  1  0.96501253  0.73224755  0.86526005  1
  Al  Al18  1  0.90476674  0.67251571  0.23175387  1
  Al  Al19  1  0.10960895  0.10708603  0.09468005  1
  Al  Al20  1  0.73008744  0.52721228  0.98327103  1
  Al  Al21  1  0.95601308  0.88354973  0.40826808  1
  Al  Al22  1  0.95053589  0.69471242  0.71684118  1
  Al  Al23  1  0.67336112  0.39295119  0.38407627  1
  Al  Al24  1  0.64370417  0.20115215  0.69671258  1
  Al  Al25  1  0.74549079  0.05433678  0.51793983  1
  Al  Al26  1  0.01216666  0.41216292  0.79737313  1
  Al  Al27  1  0.62365961  0.18051435  0.06044618  1
  Al  Al28  1  0.73007368  0.03856485  0.32270968  1
  Al  Al29  1  0.18474114  0.41455596  0.40000976  1
  Al  Al30  1  0.79789658  0.95736368  0.78138271  1
  Al  Al31  1  0.04061702  0.52048900  0.09115460  1
  O  O32  1  0.03343033  0.55119559  0.00284929  1
  O  O33  1  0.97711902  0.49699883  0.17849380  1
  O  O34  1  0.88410567  0.28897944  0.36040137  1
  O  O35  1  0.81076117  0.43710700  0.67417112  1
  O  O36  1  0.18081962  0.89025640  0.22570950  1
  O  O37  1  0.02700367  0.67186123  0.53526181  1
  O  O38  1  0.29485378  0.89176170  0.89726186  1
  O  O39  1  0.35121414  0.70262392  0.11328641  1
  O  O40  1  0.23253091  0.64996048  0.39004523  1
  O  O41  1  0.26276352  0.53641818  0.76279063  1
  O  O42  1  0.95586383  0.25509303  0.07343057  1
  O  O43  1  0.93955410  0.92147797  0.32312559  1
  O  O44  1  0.03751739  0.80852594  0.64968644  1
  O  O45  1  0.13304084  0.25469873  0.24239410  1
  O  O46  1  0.23193946  0.13619725  0.56480313  1
  O  O47  1  0.19858501  0.24530677  0.90695674  1
  O  O48  1  0.67917812  0.00156459  0.23776461  1
  O  O49  1  0.91439285  0.87630090  0.93902443  1
  O  O50  1  0.71821362  0.83472557  0.54811581  1
  O  O51  1  0.50568945  0.62276077  0.96969738  1
  O  O52  1  0.60229437  0.50918938  0.57989327  1
  O  O53  1  0.35894117  0.31202167  0.35563656  1
  O  O54  1  0.61424122  0.61161684  0.18944412  1
  O  O55  1  0.24843511  0.37568869  0.47977468  1
  O  O56  1  0.63815177  0.68514010  0.84952115  1
  O  O57  1  0.57205643  0.24882375  0.94420335  1
  O  O58  1  0.47038640  0.24698656  0.76594129  1
  O  O59  1  0.61619324  0.32156100  0.24886580  1
  O  O60  1  0.75874884  0.64262607  0.42106199  1
  O  O61  1  0.62997847  0.32462744  0.46424334  1
  O  O62  1  0.86364098  0.56777456  0.78485626  1
  O  O63  1  0.30368380  0.09026919  0.03514755  1
  O  O64  1  0.59981246  0.10873159  0.13894316  1
  O  O65  1  0.68770555  0.46262338  0.06639863  1
  O  O66  1  0.89140289  0.86118297  0.09781610  1
  O  O67  1  0.43827008  0.99940227  0.34075034  1
  O  O68  1  0.67717440  0.74544975  0.71795462  1
  O  O69  1  0.42979370  0.96722731  0.50331523  1
  O  O70  1  0.64281910  0.02595034  0.84008845  1
  O  O71  1  0.51862414  0.98527448  0.63925726  1
  O  O72  1  0.68424779  0.12323879  0.97256552  1
  O  O73  1  0.74350380  0.98571484  0.43023448  1
  O  O74  1  0.86841659  0.17692452  0.74727020  1
  O  O75  1  0.91520609  0.28271616  0.56481741  1
  O  O76  1  0.01617491  0.50400120  0.88024709  1
  O  O77  1  0.75708571  0.51525184  0.29270976  1
  O  O78  1  0.27348831  0.59095994  0.61954835  1
  O  O79  1  0.07359799  0.93168051  0.79958676  1
