# generated using pymatgen
data_CdGeN2
_symmetry_space_group_name_H-M   'P 1'
_cell_length_a   5.52620281
_cell_length_b   11.07878863
_cell_length_c   14.29200081
_cell_angle_alpha   90.00000000
_cell_angle_beta   90.00000000
_cell_angle_gamma   90.00000000
_symmetry_Int_Tables_number   1
_chemical_formula_structural   CdGeN2
_chemical_formula_sum   'Cd16 Ge16 N32'
_cell_volume   875.00821040
_cell_formula_units_Z   16
loop_
 _symmetry_equiv_pos_site_id
 _symmetry_equiv_pos_as_xyz
  1  'x, y, z'
loop_
 _atom_site_type_symbol
 _atom_site_label
 _atom_site_symmetry_multiplicity
 _atom_site_fract_x
 _atom_site_fract_y
 _atom_site_fract_z
 _atom_site_occupancy
  Cd  Cd0  1  0.72311808  0.97384915  0.43874325  1
  Cd  Cd1  1  0.22311808  0.52615085  0.56125675  1
  Cd  Cd2  1  0.27688192  0.47384915  0.06125675  1
  Cd  Cd3  1  0.77688192  0.02615085  0.93874325  1
  Cd  Cd4  1  0.27688192  0.02615085  0.56125675  1
  Cd  Cd5  1  0.77688192  0.47384915  0.43874325  1
  Cd  Cd6  1  0.72311808  0.52615085  0.93874325  1
  Cd  Cd7  1  0.22311808  0.97384915  0.06125675  1
  Cd  Cd8  1  0.79426996  0.25902305  0.31068628  1
  Cd  Cd9  1  0.29426996  0.24097695  0.68931372  1
  Cd  Cd10  1  0.20573004  0.75902305  0.18931372  1
  Cd  Cd11  1  0.70573004  0.74097695  0.81068628  1
  Cd  Cd12  1  0.20573004  0.74097695  0.68931372  1
  Cd  Cd13  1  0.70573004  0.75902305  0.31068628  1
  Cd  Cd14  1  0.79426996  0.24097695  0.81068628  1
  Cd  Cd15  1  0.29426996  0.25902305  0.18931372  1
  Ge  Ge16  1  0.68688813  0.02268402  0.18706530  1
  Ge  Ge17  1  0.18688813  0.47731598  0.81293470  1
  Ge  Ge18  1  0.31311187  0.52268402  0.31293470  1
  Ge  Ge19  1  0.81311187  0.97731598  0.68706530  1
  Ge  Ge20  1  0.31311187  0.97731598  0.81293470  1
  Ge  Ge21  1  0.81311187  0.52268402  0.18706530  1
  Ge  Ge22  1  0.68688813  0.47731598  0.68706530  1
  Ge  Ge23  1  0.18688813  0.02268402  0.31293470  1
  Ge  Ge24  1  0.78809933  0.27902164  0.06151008  1
  Ge  Ge25  1  0.28809933  0.22097836  0.93848992  1
  Ge  Ge26  1  0.21190067  0.77902164  0.43848992  1
  Ge  Ge27  1  0.71190067  0.72097836  0.56151008  1
  Ge  Ge28  1  0.21190067  0.72097836  0.93848992  1
  Ge  Ge29  1  0.71190067  0.77902164  0.06151008  1
  Ge  Ge30  1  0.78809933  0.22097836  0.56151008  1
  Ge  Ge31  1  0.28809933  0.27902164  0.43848992  1
  N  N32  1  0.63520778  0.47590884  0.29234808  1
  N  N33  1  0.13520778  0.02409116  0.70765192  1
  N  N34  1  0.36479222  0.97590884  0.20765192  1
  N  N35  1  0.86479222  0.52409116  0.79234808  1
  N  N36  1  0.36479222  0.52409116  0.70765192  1
  N  N37  1  0.86479222  0.97590884  0.29234808  1
  N  N38  1  0.63520778  0.02409116  0.79234808  1
  N  N39  1  0.13520778  0.47590884  0.20765192  1
  N  N40  1  0.62619093  0.27277074  0.45429951  1
  N  N41  1  0.12619093  0.22722926  0.54570049  1
  N  N42  1  0.37380907  0.77277074  0.04570049  1
  N  N43  1  0.87380907  0.72722926  0.95429951  1
  N  N44  1  0.37380907  0.72722926  0.54570049  1
  N  N45  1  0.87380907  0.77277074  0.45429951  1
  N  N46  1  0.62619093  0.22722926  0.95429951  1
  N  N47  1  0.12619093  0.27277074  0.04570049  1
  N  N48  1  0.69947031  0.44135708  0.08043479  1
  N  N49  1  0.19947031  0.05864292  0.91956521  1
  N  N50  1  0.30052969  0.94135708  0.41956521  1
  N  N51  1  0.80052969  0.55864292  0.58043479  1
  N  N52  1  0.30052969  0.55864292  0.91956521  1
  N  N53  1  0.80052969  0.94135708  0.08043479  1
  N  N54  1  0.69947031  0.05864292  0.58043479  1
  N  N55  1  0.19947031  0.44135708  0.41956521  1
  N  N56  1  0.68948969  0.19211814  0.16827253  1
  N  N57  1  0.18948969  0.30788186  0.83172747  1
  N  N58  1  0.31051031  0.69211814  0.33172747  1
  N  N59  1  0.81051031  0.80788186  0.66827253  1
  N  N60  1  0.31051031  0.80788186  0.83172747  1
  N  N61  1  0.81051031  0.69211814  0.16827253  1
  N  N62  1  0.68948969  0.30788186  0.66827253  1
  N  N63  1  0.18948969  0.19211814  0.33172747  1
