# generated using pymatgen
data_MgTeN2
_symmetry_space_group_name_H-M   'P 1'
_cell_length_a   6.38662748
_cell_length_b   7.63576108
_cell_length_c   5.49599918
_cell_angle_alpha   90.00000000
_cell_angle_beta   90.00000000
_cell_angle_gamma   90.00000000
_symmetry_Int_Tables_number   1
_chemical_formula_structural   MgTeN2
_chemical_formula_sum   'Mg4 Te4 N8'
_cell_volume   268.02208146
_cell_formula_units_Z   4
loop_
 _symmetry_equiv_pos_site_id
 _symmetry_equiv_pos_as_xyz
  1  'x, y, z'
loop_
 _atom_site_type_symbol
 _atom_site_label
 _atom_site_symmetry_multiplicity
 _atom_site_fract_x
 _atom_site_fract_y
 _atom_site_fract_z
 _atom_site_occupancy
  Mg  Mg0  1  0.53833911  0.87287922  0.00195243  1
  Mg  Mg1  1  0.46166089  0.12712078  0.50195243  1
  Mg  Mg2  1  0.96166089  0.37287922  0.50195243  1
  Mg  Mg3  1  0.03833911  0.62712078  0.00195243  1
  Te  Te4  1  0.64278912  0.35004307  0.02704899  1
  Te  Te5  1  0.35721088  0.64995693  0.52704899  1
  Te  Te6  1  0.85721088  0.85004307  0.52704899  1
  Te  Te7  1  0.14278912  0.14995693  0.02704899  1
  N  N8  1  0.69679263  0.27243719  0.35110844  1
  N  N9  1  0.30320737  0.72756281  0.85110844  1
  N  N10  1  0.80320737  0.77243719  0.85110844  1
  N  N11  1  0.19679263  0.22756281  0.35110844  1
  N  N12  1  0.54046843  0.85828577  0.38989015  1
  N  N13  1  0.45953157  0.14171423  0.88989015  1
  N  N14  1  0.95953157  0.35828577  0.88989015  1
  N  N15  1  0.04046843  0.64171423  0.38989015  1
