# generated using pymatgen
data_Al2O3
_symmetry_space_group_name_H-M   'P 1'
_cell_length_a   10.70029764
_cell_length_b   10.26494082
_cell_length_c   10.21031898
_cell_angle_alpha   85.76822162
_cell_angle_beta   88.85515537
_cell_angle_gamma   90.20693893
_symmetry_Int_Tables_number   1
_chemical_formula_structural   Al2O3
_chemical_formula_sum   'Al40 O60'
_cell_volume   1118.18492498
_cell_formula_units_Z   20
loop_
 _symmetry_equiv_pos_site_id
 _symmetry_equiv_pos_as_xyz
  1  'x, y, z'
loop_
 _atom_site_type_symbol
 _atom_site_label
 _atom_site_symmetry_multiplicity
 _atom_site_fract_x
 _atom_site_fract_y
 _atom_site_fract_z
 _atom_site_occupancy
  Al  Al0  1  0.25256025  0.46951583  0.28766294  1
  Al  Al1  1  0.36375790  0.98173490  0.40177054  1
  Al  Al2  1  0.49258550  0.66986353  0.68910946  1
  Al  Al3  1  0.59944369  0.94904778  0.97102603  1
  Al  Al4  1  0.40321651  0.07389183  0.82919989  1
  Al  Al5  1  0.94401150  0.41055008  0.76529570  1
  Al  Al6  1  0.34724814  0.26040537  0.56440567  1
  Al  Al7  1  0.14519812  0.99706690  0.95570229  1
  Al  Al8  1  0.36595152  0.68398266  0.96157885  1
  Al  Al9  1  0.80820999  0.47213665  0.55218015  1
  Al  Al10  1  0.64202896  0.72397611  0.43605604  1
  Al  Al11  1  0.79328308  0.31321747  0.26737541  1
  Al  Al12  1  0.96267871  0.93148545  0.37685443  1
  Al  Al13  1  0.33090145  0.72047990  0.39628057  1
  Al  Al14  1  0.13636241  0.77955847  0.53186295  1
  Al  Al15  1  0.30539297  0.19525871  0.11653347  1
  Al  Al16  1  0.97640581  0.27709223  0.00453645  1
  Al  Al17  1  0.64182944  0.23999280  0.49882586  1
  Al  Al18  1  0.67411617  0.01279216  0.43151049  1
  Al  Al19  1  0.57576036  0.15037590  0.21659185  1
  Al  Al20  1  0.00787308  0.09445510  0.18258129  1
  Al  Al21  1  0.84827107  0.00040543  0.91953158  1
  Al  Al22  1  0.73664271  0.89121792  0.18475900  1
  Al  Al23  1  0.37416866  0.90614123  0.11665927  1
  Al  Al24  1  0.12667203  0.44745144  0.52210052  1
  Al  Al25  1  0.19095879  0.16276952  0.38944974  1
  Al  Al26  1  0.66538815  0.92548161  0.69021568  1
  Al  Al27  1  0.53749967  0.41073781  0.08065497  1
  Al  Al28  1  0.49956581  0.50366505  0.48988703  1
  Al  Al29  1  0.69940702  0.58539990  0.17282679  1
  Al  Al30  1  0.23916136  0.46958667  0.02688413  1
  Al  Al31  1  0.74799502  0.62512714  0.84078120  1
  Al  Al32  1  0.19334157  0.63887549  0.74861185  1
  Al  Al33  1  0.99333060  0.49311916  0.20182178  1
  Al  Al34  1  0.19361530  0.25064720  0.79889274  1
  Al  Al35  1  0.02308079  0.60698689  0.94778388  1
  Al  Al36  1  0.43881940  0.38016926  0.82072688  1
  Al  Al37  1  0.12441011  0.75799265  0.18256500  1
  Al  Al38  1  0.71109937  0.26032557  0.95320434  1
  Al  Al39  1  0.96315727  0.84036265  0.75325040  1
  O  O40  1  0.01118783  0.91035821  0.20979656  1
  O  O41  1  0.39073982  0.06154884  0.01209324  1
  O  O42  1  0.53126097  0.96529036  0.80224469  1
  O  O43  1  0.47361940  0.49550696  0.67961066  1
  O  O44  1  0.28580627  0.33687878  0.91065859  1
  O  O45  1  0.29809342  0.10456123  0.51526597  1
  O  O46  1  0.22051353  0.34315452  0.64873463  1
  O  O47  1  0.79341613  0.50558016  0.72052759  1
  O  O48  1  0.90560641  0.10865137  0.04018551  1
  O  O49  1  0.46878597  0.80915403  0.01619245  1
  O  O50  1  0.42186663  0.22586312  0.73268333  1
  O  O51  1  0.04201795  0.09071301  0.36655273  1
  O  O52  1  0.81920321  0.93420341  0.75267520  1
  O  O53  1  0.49800491  0.32573798  0.49423048  1
  O  O54  1  0.60259274  0.99680222  0.14389164  1
  O  O55  1  0.69188758  0.73572180  0.26487488  1
  O  O56  1  0.67299653  0.85879612  0.52518861  1
  O  O57  1  0.82937969  0.48783939  0.23651531  1
  O  O58  1  0.90044528  0.69887089  0.85670518  1
  O  O59  1  0.45981248  0.25568350  0.15036727  1
  O  O60  1  0.69337198  0.57778357  0.00146197  1
  O  O61  1  0.23441267  0.07593986  0.81974037  1
  O  O62  1  0.19945296  0.62877113  0.93051498  1
  O  O63  1  0.84711668  0.35276300  0.91491906  1
  O  O64  1  0.29332889  0.85107326  0.50831175  1
  O  O65  1  0.11739262  0.79134076  0.71266809  1
  O  O66  1  0.48633879  0.69354394  0.50670626  1
  O  O67  1  0.24688262  0.35196929  0.16554746  1
  O  O68  1  0.05844936  0.52828691  0.79506617  1
  O  O69  1  0.35983280  0.70447707  0.77978750  1
  O  O70  1  0.69181181  0.17879842  0.34035603  1
  O  O71  1  0.41548988  0.51406123  0.98445151  1
  O  O72  1  0.36239234  0.54489577  0.39071837  1
  O  O73  1  0.03508338  0.26327150  0.83245522  1
  O  O74  1  0.75496463  0.87273164  0.01490865  1
  O  O75  1  0.16076201  0.74859153  0.35236346  1
  O  O76  1  0.56924461  0.49164204  0.22459135  1
  O  O77  1  0.18653919  0.60528095  0.57425225  1
  O  O78  1  0.13949215  0.13715144  0.06349026  1
  O  O79  1  0.25165863  0.60637013  0.15817448  1
  O  O80  1  0.21796274  0.86696204  0.06016381  1
  O  O81  1  0.94695478  0.27039684  0.19951757  1
  O  O82  1  0.00348457  0.66005870  0.11628789  1
  O  O83  1  0.57134854  0.34498014  0.91490415  1
  O  O84  1  0.08656059  0.49170410  0.34296865  1
  O  O85  1  0.39359157  0.84772542  0.28088962  1
  O  O86  1  0.77452780  0.33768214  0.46463530  1
  O  O87  1  0.51762542  0.04369642  0.37579344  1
  O  O88  1  0.05170789  0.44077683  0.04018496  1
  O  O89  1  0.97855876  0.84407071  0.52669079  1
  O  O90  1  0.23360614  0.32656538  0.42004525  1
  O  O91  1  0.63421958  0.72962277  0.75252959  1
  O  O92  1  0.67532628  0.56072676  0.48613307  1
  O  O93  1  0.80260924  0.96098994  0.32480767  1
  O  O94  1  0.69022083  0.28088987  0.12503556  1
  O  O95  1  0.00754134  0.94262779  0.88699694  1
  O  O96  1  0.96916055  0.42234528  0.58394414  1
  O  O97  1  0.66682005  0.08900776  0.58696200  1
  O  O98  1  0.28365185  0.08555943  0.26753951  1
  O  O99  1  0.70148156  0.09864392  0.90716925  1
