# generated using pymatgen
data_SrC7N10
_symmetry_space_group_name_H-M   'P 1'
_cell_length_a   5.86469013
_cell_length_b   5.68532392
_cell_length_c   8.16661893
_cell_angle_alpha   90.00000000
_cell_angle_beta   106.40793824
_cell_angle_gamma   90.00000000
_symmetry_Int_Tables_number   1
_chemical_formula_structural   SrC7N10
_chemical_formula_sum   'Sr2 C14 N20'
_cell_volume   261.20749370
_cell_formula_units_Z   2
loop_
 _symmetry_equiv_pos_site_id
 _symmetry_equiv_pos_as_xyz
  1  'x, y, z'
loop_
 _atom_site_type_symbol
 _atom_site_label
 _atom_site_symmetry_multiplicity
 _atom_site_fract_x
 _atom_site_fract_y
 _atom_site_fract_z
 _atom_site_occupancy
  Sr  Sr0  1  0.96071119  0.12056228  0.67226952  1
  Sr  Sr1  1  0.96071119  0.87943772  0.17226952  1
  C  C2  1  0.54007315  0.97452260  0.82816728  1
  C  C3  1  0.54007315  0.02547740  0.32816728  1
  C  C4  1  0.35785141  0.02998388  0.02023621  1
  C  C5  1  0.35785141  0.97001612  0.52023621  1
  C  C6  1  0.11115520  0.38885189  0.07334190  1
  C  C7  1  0.11115520  0.61114811  0.57334190  1
  C  C8  1  0.66305185  0.36690326  0.98932747  1
  C  C9  1  0.66305185  0.63309674  0.48932747  1
  C  C10  1  0.84088828  0.63190335  0.80961784  1
  C  C11  1  0.84088828  0.36809665  0.30961784  1
  C  C12  1  0.29671645  0.62342057  0.88611351  1
  C  C13  1  0.29671645  0.37657943  0.38611351  1
  C  C14  1  0.48354749  0.37631796  0.68617719  1
  C  C15  1  0.48354749  0.62368204  0.18617719  1
  N  N16  1  0.74926782  0.84556008  0.83761621  1
  N  N17  1  0.74926782  0.15443992  0.33761621  1
  N  N18  1  0.57550503  0.12630950  0.97981733  1
  N  N19  1  0.57550503  0.87369050  0.47981733  1
  N  N20  1  0.31907168  0.87487764  0.86701110  1
  N  N21  1  0.31907168  0.12512236  0.36701110  1
  N  N22  1  0.15629063  0.16977799  0.01012758  1
  N  N23  1  0.15629063  0.83022201  0.51012758  1
  N  N24  1  0.28338548  0.50318932  0.72594747  1
  N  N25  1  0.28338548  0.49681068  0.22594747  1
  N  N26  1  0.44173601  0.11734816  0.67537188  1
  N  N27  1  0.44173601  0.88265184  0.17537188  1
  N  N28  1  0.88231852  0.40308385  0.12405404  1
  N  N29  1  0.88231852  0.59691615  0.62405404  1
  N  N30  1  0.07982763  0.59208968  0.94071844  1
  N  N31  1  0.07982763  0.40791032  0.44071844  1
  N  N32  1  0.70397052  0.41198282  0.82170179  1
  N  N33  1  0.70397052  0.58801718  0.32170179  1
  N  N34  1  0.49693164  0.54017155  0.02168222  1
  N  N35  1  0.49693164  0.45982845  0.52168222  1
