# generated using pymatgen
data_ZnO
_symmetry_space_group_name_H-M   'P 1'
_cell_length_a   10.44276233
_cell_length_b   9.97683159
_cell_length_c   10.79180323
_cell_angle_alpha   88.82710083
_cell_angle_beta   84.37236791
_cell_angle_gamma   91.33084408
_symmetry_Int_Tables_number   1
_chemical_formula_structural   ZnO
_chemical_formula_sum   'Zn40 O40'
_cell_volume   1118.33800383
_cell_formula_units_Z   40
loop_
 _symmetry_equiv_pos_site_id
 _symmetry_equiv_pos_as_xyz
  1  'x, y, z'
loop_
 _atom_site_type_symbol
 _atom_site_label
 _atom_site_symmetry_multiplicity
 _atom_site_fract_x
 _atom_site_fract_y
 _atom_site_fract_z
 _atom_site_occupancy
  Zn  Zn0  1  0.46937290  0.86705439  0.32765074  1
  Zn  Zn1  1  0.90687091  0.54226127  0.90709927  1
  Zn  Zn2  1  0.55049333  0.44938864  0.30984129  1
  Zn  Zn3  1  0.50816026  0.13057730  0.48290737  1
  Zn  Zn4  1  0.37813338  0.66622758  0.20631377  1
  Zn  Zn5  1  0.01469537  0.50507131  0.62401650  1
  Zn  Zn6  1  0.89225880  0.75873380  0.60670821  1
  Zn  Zn7  1  0.24341707  0.93920830  0.19884724  1
  Zn  Zn8  1  0.05213608  0.04756577  0.51244392  1
  Zn  Zn9  1  0.81896208  0.60214400  0.40716013  1
  Zn  Zn10  1  0.55359280  0.53205485  0.57547181  1
  Zn  Zn11  1  0.66427669  0.65461424  0.05954076  1
  Zn  Zn12  1  0.09926943  0.43154047  0.33118936  1
  Zn  Zn13  1  0.21118520  0.24507899  0.61969616  1
  Zn  Zn14  1  0.99726236  0.15063931  0.27440181  1
  Zn  Zn15  1  0.12607533  0.72489016  0.38569578  1
  Zn  Zn16  1  0.05085912  0.29783009  0.01697902  1
  Zn  Zn17  1  0.36400759  0.23078977  0.98743490  1
  Zn  Zn18  1  0.47851131  0.65510657  0.83404077  1
  Zn  Zn19  1  0.51324352  0.99154489  0.01107900  1
  Zn  Zn20  1  0.39052700  0.98519513  0.74507320  1
  Zn  Zn21  1  0.11585479  0.08954104  0.84752979  1
  Zn  Zn22  1  0.82989876  0.03809872  0.04392192  1
  Zn  Zn23  1  0.60339350  0.81658668  0.58404893  1
  Zn  Zn24  1  0.29439631  0.47731655  0.50727751  1
  Zn  Zn25  1  0.92529746  0.77536860  0.11300031  1
  Zn  Zn26  1  0.75781309  0.05176123  0.57886343  1
  Zn  Zn27  1  0.76332088  0.80910375  0.83622750  1
  Zn  Zn28  1  0.22756268  0.46581241  0.84073205  1
  Zn  Zn29  1  0.91025365  0.24974718  0.76571917  1
  Zn  Zn30  1  0.89113204  0.90895943  0.34410632  1
  Zn  Zn31  1  0.51242288  0.24801658  0.72688036  1
  Zn  Zn32  1  0.52617283  0.19419142  0.17779928  1
  Zn  Zn33  1  0.28876243  0.20316944  0.31562653  1
  Zn  Zn34  1  0.85085344  0.44502032  0.19659707  1
  Zn  Zn35  1  0.15408790  0.59277145  0.08186463  1
  Zn  Zn36  1  0.73109599  0.49878789  0.74336317  1
  Zn  Zn37  1  0.23391971  0.79979242  0.93961596  1
  Zn  Zn38  1  0.79389546  0.30333097  0.48603564  1
  Zn  Zn39  1  0.65411499  0.29445962  0.96593643  1
  O  O40  1  0.64492281  0.20054081  0.58558748  1
  O  O41  1  0.48120081  0.10806654  0.86548548  1
  O  O42  1  0.43088025  0.85591105  0.12010377  1
  O  O43  1  0.88324296  0.12364224  0.44598148  1
  O  O44  1  0.05366969  0.13919018  0.67371709  1
  O  O45  1  0.79807789  0.37234794  0.87386171  1
  O  O46  1  0.29203483  0.80755038  0.33664763  1
  O  O47  1  0.49827227  0.34282719  0.05377241  1
  O  O48  1  0.71225234  0.64815109  0.56277801  1
  O  O49  1  0.22288824  0.94345884  0.83216785  1
  O  O50  1  0.18857836  0.44758443  0.66610678  1
  O  O51  1  0.55085871  0.60709347  0.20191639  1
  O  O52  1  0.20521784  0.32553629  0.43744480  1
  O  O53  1  0.65443785  0.64612509  0.87559024  1
  O  O54  1  0.65648700  0.11264068  0.06130581  1
  O  O55  1  0.21557618  0.26751181  0.90207815  1
  O  O56  1  0.47000224  0.81052948  0.71843496  1
  O  O57  1  0.53764726  0.44489023  0.73399298  1
  O  O58  1  0.45043606  0.55325148  0.44610636  1
  O  O59  1  0.92060416  0.63520146  0.74314560  1
  O  O60  1  0.00348145  0.85510911  0.48065759  1
  O  O61  1  0.48081454  0.25544870  0.34348636  1
  O  O62  1  0.12045643  0.79440922  0.09784955  1
  O  O63  1  0.14804824  0.06593695  0.34213789  1
  O  O64  1  0.21553587  0.56468153  0.23982361  1
  O  O65  1  0.83674690  0.57919297  0.07549123  1
  O  O66  1  0.86522003  0.37893499  0.63090073  1
  O  O67  1  0.00400530  0.33337806  0.20308818  1
  O  O68  1  0.84436732  0.73910434  0.28381154  1
  O  O69  1  0.92248594  0.00798899  0.18807277  1
  O  O70  1  0.01362585  0.56796315  0.44570618  1
  O  O71  1  0.74202812  0.42455173  0.35298625  1
  O  O72  1  0.07118560  0.48932206  0.96236353  1
  O  O73  1  0.37418958  0.15198371  0.62911569  1
  O  O74  1  0.30952013  0.62106011  0.92140451  1
  O  O75  1  0.57145736  0.94418515  0.44359665  1
  O  O76  1  0.76497648  0.89397675  0.67418490  1
  O  O77  1  0.95496731  0.15691639  0.93094414  1
  O  O78  1  0.79974901  0.84703146  0.99993169  1
  O  O79  1  0.33805646  0.11948741  0.15033404  1
