# generated using pymatgen
data_Al2O3
_symmetry_space_group_name_H-M   'P 1'
_cell_length_a   10.15232675
_cell_length_b   10.43683822
_cell_length_c   9.95050324
_cell_angle_alpha   85.76546989
_cell_angle_beta   90.89076939
_cell_angle_gamma   91.01527209
_symmetry_Int_Tables_number   1
_chemical_formula_structural   Al2O3
_chemical_formula_sum   'Al40 O60'
_cell_volume   1051.18690442
_cell_formula_units_Z   20
loop_
 _symmetry_equiv_pos_site_id
 _symmetry_equiv_pos_as_xyz
  1  'x, y, z'
loop_
 _atom_site_type_symbol
 _atom_site_label
 _atom_site_symmetry_multiplicity
 _atom_site_fract_x
 _atom_site_fract_y
 _atom_site_fract_z
 _atom_site_occupancy
  Al  Al0  1  0.59326159  0.12527400  0.96874077  1
  Al  Al1  1  0.91149946  0.93761899  0.54509373  1
  Al  Al2  1  0.43156106  0.31784724  0.16833677  1
  Al  Al3  1  0.16082642  0.38752857  0.46596317  1
  Al  Al4  1  0.85720766  0.95698405  0.24269406  1
  Al  Al5  1  0.34691650  0.70686768  0.09484955  1
  Al  Al6  1  0.17028666  0.08548470  0.57511127  1
  Al  Al7  1  0.21969470  0.43574794  0.75945765  1
  Al  Al8  1  0.27204693  0.12902227  0.83659275  1
  Al  Al9  1  0.44116396  0.40138486  0.89148024  1
  Al  Al10  1  0.50089861  0.57617529  0.62383280  1
  Al  Al11  1  0.17909988  0.84876831  0.82305203  1
  Al  Al12  1  0.64463454  0.87074867  0.59199193  1
  Al  Al13  1  0.93456352  0.90306091  0.79996249  1
  Al  Al14  1  0.57479886  0.07396629  0.38284254  1
  Al  Al15  1  0.76745405  0.66835639  0.73235548  1
  Al  Al16  1  0.91695009  0.26202562  0.09911891  1
  Al  Al17  1  0.77438429  0.68834149  0.40300269  1
  Al  Al18  1  0.26908521  0.14083196  0.31644011  1
  Al  Al19  1  0.39952870  0.01089584  0.12035388  1
  Al  Al20  1  0.99783025  0.17374652  0.82569342  1
  Al  Al21  1  0.43036743  0.78349993  0.78518040  1
  Al  Al22  1  0.59601752  0.82892648  0.14685250  1
  Al  Al23  1  0.09448905  0.70845753  0.25025718  1
  Al  Al24  1  0.08773819  0.03076297  0.08577446  1
  Al  Al25  1  0.49766509  0.07351265  0.67023305  1
  Al  Al26  1  0.94509763  0.45069184  0.85101822  1
  Al  Al27  1  0.55215937  0.56570301  0.22208526  1
  Al  Al28  1  0.63019713  0.60080849  0.95138516  1
  Al  Al29  1  0.89951175  0.74848842  0.05640038  1
  Al  Al30  1  0.76357368  0.15725120  0.68662518  1
  Al  Al31  1  0.44224481  0.33544241  0.47762878  1
  Al  Al32  1  0.29855099  0.60937754  0.39932346  1
  Al  Al33  1  0.32461071  0.84687897  0.49102703  1
  Al  Al34  1  0.69786356  0.38587116  0.41910108  1
  Al  Al35  1  0.95202649  0.46563929  0.29079530  1
  Al  Al36  1  0.18542373  0.45391926  0.09061686  1
  Al  Al37  1  0.92056860  0.40663687  0.58974314  1
  Al  Al38  1  0.88472373  0.19010492  0.38050884  1
  Al  Al39  1  0.69187303  0.36052208  0.01355375  1
  O  O40  1  0.01962071  0.87270131  0.16052532  1
  O  O41  1  0.03498235  0.38570493  0.16379057  1
  O  O42  1  0.52375801  0.27817365  0.02596157  1
  O  O43  1  0.99446397  0.33509683  0.43578424  1
  O  O44  1  0.61241928  0.45002665  0.86747168  1
  O  O45  1  0.90167708  0.30398141  0.75469684  1
  O  O46  1  0.31756654  0.77563882  0.92168930  1
  O  O47  1  0.25020822  0.00084147  0.44440246  1
  O  O48  1  0.36503134  0.45894073  0.03949725  1
  O  O49  1  0.05879858  0.92073601  0.67094967  1
  O  O50  1  0.32915218  0.06913635  0.68574966  1
  O  O51  1  0.12031353  0.53705932  0.35854754  1
  O  O52  1  0.74111635  0.06930526  0.32583884  1
  O  O53  1  0.58168328  0.99563466  0.09565345  1
  O  O54  1  0.77704550  0.85518512  0.12115578  1
  O  O55  1  0.12648158  0.17650260  0.71734548  1
  O  O56  1  0.01294058  0.78991609  0.90969824  1
  O  O57  1  0.68267863  0.69972655  0.55837451  1
  O  O58  1  0.44891777  0.13381379  0.26090915  1
  O  O59  1  0.54321002  0.91059109  0.73063147  1
  O  O60  1  0.23535194  0.05221346  0.17105977  1
  O  O61  1  0.10129523  0.44096958  0.62752207  1
  O  O62  1  0.64236986  0.69748584  0.28580413  1
  O  O63  1  0.75264650  0.19882297  0.02357302  1
  O  O64  1  0.78734504  0.67524540  0.92180371  1
  O  O65  1  0.24566378  0.23311110  0.46764010  1
  O  O66  1  0.15583385  0.99723302  0.91305605  1
  O  O67  1  0.85906380  0.41089930  0.99366589  1
  O  O68  1  0.57412942  0.44150303  0.54686604  1
  O  O69  1  0.28840885  0.81514995  0.67769570  1
  O  O70  1  0.40830623  0.84621094  0.17957754  1
  O  O71  1  0.20989359  0.75933518  0.37730662  1
  O  O72  1  0.82581004  0.51971197  0.43200052  1
  O  O73  1  0.38875976  0.59722079  0.24965971  1
  O  O74  1  0.95550667  0.10959161  0.21565780  1
  O  O75  1  0.87145233  0.05799771  0.80592687  1
  O  O76  1  0.31547429  0.29900415  0.82598321  1
  O  O77  1  0.61299254  0.15351337  0.78115792  1
  O  O78  1  0.41266922  0.68766105  0.51286658  1
  O  O79  1  0.92846984  0.63949908  0.21126044  1
  O  O80  1  0.53371991  0.38292709  0.31225806  1
  O  O81  1  0.78221191  0.27388230  0.53889709  1
  O  O82  1  0.18041666  0.63693077  0.11379252  1
  O  O83  1  0.65151618  0.49547554  0.10835070  1
  O  O84  1  0.40635910  0.07851694  0.94848282  1
  O  O85  1  0.74201854  0.02054343  0.57966430  1
  O  O86  1  0.80705735  0.32983033  0.27639191  1
  O  O87  1  0.51592944  0.92651625  0.46871592  1
  O  O88  1  0.53143050  0.69905936  0.04617998  1
  O  O89  1  0.82714875  0.82673169  0.68889347  1
  O  O90  1  0.87466746  0.53990281  0.70673646  1
  O  O91  1  0.99015112  0.08384457  0.48666733  1
  O  O92  1  0.52265482  0.18106057  0.51361407  1
  O  O93  1  0.37593897  0.52114899  0.75183361  1
  O  O94  1  0.32403649  0.45480017  0.49009400  1
  O  O95  1  0.26687661  0.30517458  0.21612712  1
  O  O96  1  0.57175116  0.67152817  0.77258469  1
  O  O97  1  0.03608169  0.18567347  0.99434545  1
  O  O98  1  0.11606583  0.46363854  0.90028041  1
  O  O99  1  0.86820085  0.84144870  0.40319212  1
