# generated using pymatgen
data_SiGeN2
_symmetry_space_group_name_H-M   'P 1'
_cell_length_a   4.89740342
_cell_length_b   10.85313756
_cell_length_c   14.67567179
_cell_angle_alpha   90.00000000
_cell_angle_beta   90.00000000
_cell_angle_gamma   90.00000000
_symmetry_Int_Tables_number   1
_chemical_formula_structural   SiGeN2
_chemical_formula_sum   'Si16 Ge16 N32'
_cell_volume   780.04413945
_cell_formula_units_Z   16
loop_
 _symmetry_equiv_pos_site_id
 _symmetry_equiv_pos_as_xyz
  1  'x, y, z'
loop_
 _atom_site_type_symbol
 _atom_site_label
 _atom_site_symmetry_multiplicity
 _atom_site_fract_x
 _atom_site_fract_y
 _atom_site_fract_z
 _atom_site_occupancy
  Si  Si0  1  0.68798377  0.98954377  0.18886557  1
  Si  Si1  1  0.18798377  0.51045623  0.81113443  1
  Si  Si2  1  0.31201623  0.48954377  0.31113443  1
  Si  Si3  1  0.81201623  0.01045623  0.68886557  1
  Si  Si4  1  0.31201623  0.01045623  0.81113443  1
  Si  Si5  1  0.81201623  0.48954377  0.18886557  1
  Si  Si6  1  0.68798377  0.51045623  0.68886557  1
  Si  Si7  1  0.18798377  0.98954377  0.31113443  1
  Si  Si8  1  0.83487579  0.24913894  0.06112613  1
  Si  Si9  1  0.33487579  0.25086106  0.93887387  1
  Si  Si10  1  0.16512421  0.74913894  0.43887387  1
  Si  Si11  1  0.66512421  0.75086106  0.56112613  1
  Si  Si12  1  0.16512421  0.75086106  0.93887387  1
  Si  Si13  1  0.66512421  0.74913894  0.06112613  1
  Si  Si14  1  0.83487579  0.25086106  0.56112613  1
  Si  Si15  1  0.33487579  0.24913894  0.43887387  1
  Ge  Ge16  1  0.68378386  0.96108933  0.42600768  1
  Ge  Ge17  1  0.18378386  0.53891067  0.57399232  1
  Ge  Ge18  1  0.31621614  0.46108933  0.07399232  1
  Ge  Ge19  1  0.81621614  0.03891067  0.92600768  1
  Ge  Ge20  1  0.31621614  0.03891067  0.57399232  1
  Ge  Ge21  1  0.81621614  0.46108933  0.42600768  1
  Ge  Ge22  1  0.68378386  0.53891067  0.92600768  1
  Ge  Ge23  1  0.18378386  0.96108933  0.07399232  1
  Ge  Ge24  1  0.91840503  0.23267580  0.31917418  1
  Ge  Ge25  1  0.41840503  0.26732420  0.68082582  1
  Ge  Ge26  1  0.08159497  0.73267580  0.18082582  1
  Ge  Ge27  1  0.58159497  0.76732420  0.81917418  1
  Ge  Ge28  1  0.08159497  0.76732420  0.68082582  1
  Ge  Ge29  1  0.58159497  0.73267580  0.31917418  1
  Ge  Ge30  1  0.91840503  0.26732420  0.81917418  1
  Ge  Ge31  1  0.41840503  0.23267580  0.18082582  1
  N  N32  1  0.66179853  0.47818326  0.29646062  1
  N  N33  1  0.16179853  0.02181674  0.70353938  1
  N  N34  1  0.33820147  0.97818326  0.20353938  1
  N  N35  1  0.83820147  0.52181674  0.79646062  1
  N  N36  1  0.33820147  0.52181674  0.70353938  1
  N  N37  1  0.83820147  0.97818326  0.29646062  1
  N  N38  1  0.66179853  0.02181674  0.79646062  1
  N  N39  1  0.16179853  0.47818326  0.20353938  1
  N  N40  1  0.68796274  0.27212522  0.45071588  1
  N  N41  1  0.18796274  0.22787478  0.54928412  1
  N  N42  1  0.31203726  0.77212522  0.04928412  1
  N  N43  1  0.81203726  0.72787478  0.95071588  1
  N  N44  1  0.31203726  0.72787478  0.54928412  1
  N  N45  1  0.81203726  0.77212522  0.45071588  1
  N  N46  1  0.68796274  0.22787478  0.95071588  1
  N  N47  1  0.18796274  0.27212522  0.04928412  1
  N  N48  1  0.66932823  0.37199622  0.11989978  1
  N  N49  1  0.16932823  0.12800378  0.88010022  1
  N  N50  1  0.33067177  0.87199622  0.38010022  1
  N  N51  1  0.83067177  0.62800378  0.61989978  1
  N  N52  1  0.33067177  0.62800378  0.88010022  1
  N  N53  1  0.83067177  0.87199622  0.11989978  1
  N  N54  1  0.66932823  0.12800378  0.61989978  1
  N  N55  1  0.16932823  0.37199622  0.38010022  1
  N  N56  1  0.72716544  0.12883690  0.13013938  1
  N  N57  1  0.22716544  0.37116310  0.86986062  1
  N  N58  1  0.27283456  0.62883690  0.36986062  1
  N  N59  1  0.77283456  0.87116310  0.63013938  1
  N  N60  1  0.27283456  0.87116310  0.86986062  1
  N  N61  1  0.77283456  0.62883690  0.13013938  1
  N  N62  1  0.72716544  0.37116310  0.63013938  1
  N  N63  1  0.22716544  0.12883690  0.36986062  1
