# generated using pymatgen
data_Sr(VN2)2
_symmetry_space_group_name_H-M   'P 1'
_cell_length_a   10.56917627
_cell_length_b   10.56917627
_cell_length_c   10.56917627
_cell_angle_alpha   90.00000000
_cell_angle_beta   90.00000000
_cell_angle_gamma   90.00000000
_symmetry_Int_Tables_number   1
_chemical_formula_structural   Sr(VN2)2
_chemical_formula_sum   'Sr12 V24 N48'
_cell_volume   1180.65612106
_cell_formula_units_Z   12
loop_
 _symmetry_equiv_pos_site_id
 _symmetry_equiv_pos_as_xyz
  1  'x, y, z'
loop_
 _atom_site_type_symbol
 _atom_site_label
 _atom_site_symmetry_multiplicity
 _atom_site_fract_x
 _atom_site_fract_y
 _atom_site_fract_z
 _atom_site_occupancy
  Sr  Sr0  1  0.50000000  0.50000000  0.00000000  1
  Sr  Sr1  1  0.50000000  0.00000000  0.50000000  1
  Sr  Sr2  1  -0.00000000  0.50000000  0.50000000  1
  Sr  Sr3  1  -0.00000000  0.00000000  0.00000000  1
  Sr  Sr4  1  0.12233150  0.87766850  0.37766850  1
  Sr  Sr5  1  0.87766850  0.37766850  0.12233150  1
  Sr  Sr6  1  0.37766850  0.12233150  0.87766850  1
  Sr  Sr7  1  0.62233150  0.62233150  0.62233150  1
  Sr  Sr8  1  0.87766850  0.12233150  0.62233150  1
  Sr  Sr9  1  0.12233150  0.62233150  0.87766850  1
  Sr  Sr10  1  0.62233150  0.87766850  0.12233150  1
  Sr  Sr11  1  0.37766850  0.37766850  0.37766850  1
  V  V12  1  0.38302340  0.70218720  0.35495845  1
  V  V13  1  0.61697660  0.20218720  0.14504155  1
  V  V14  1  0.11697660  0.29781280  0.85495845  1
  V  V15  1  0.88302340  0.79781280  0.64504155  1
  V  V16  1  0.35495845  0.38302340  0.70218720  1
  V  V17  1  0.14504155  0.61697660  0.20218720  1
  V  V18  1  0.85495845  0.11697660  0.29781280  1
  V  V19  1  0.64504155  0.88302340  0.79781280  1
  V  V20  1  0.70218720  0.35495845  0.38302340  1
  V  V21  1  0.20218720  0.14504155  0.61697660  1
  V  V22  1  0.29781280  0.85495845  0.11697660  1
  V  V23  1  0.79781280  0.64504155  0.88302340  1
  V  V24  1  0.61697660  0.29781280  0.64504155  1
  V  V25  1  0.38302340  0.79781280  0.85495845  1
  V  V26  1  0.88302340  0.70218720  0.14504155  1
  V  V27  1  0.11697660  0.20218720  0.35495845  1
  V  V28  1  0.64504155  0.61697660  0.29781280  1
  V  V29  1  0.85495845  0.38302340  0.79781280  1
  V  V30  1  0.14504155  0.88302340  0.70218720  1
  V  V31  1  0.35495845  0.11697660  0.20218720  1
  V  V32  1  0.29781280  0.64504155  0.61697660  1
  V  V33  1  0.79781280  0.85495845  0.38302340  1
  V  V34  1  0.70218720  0.14504155  0.88302340  1
  V  V35  1  0.20218720  0.35495845  0.11697660  1
  N  N36  1  0.36037563  0.85634806  0.27516844  1
  N  N37  1  0.63962437  0.35634806  0.22483156  1
  N  N38  1  0.13962437  0.14365194  0.77516844  1
  N  N39  1  0.86037563  0.64365194  0.72483156  1
  N  N40  1  0.27516844  0.36037563  0.85634806  1
  N  N41  1  0.22483156  0.63962437  0.35634806  1
  N  N42  1  0.77516844  0.13962437  0.14365194  1
  N  N43  1  0.72483156  0.86037563  0.64365194  1
  N  N44  1  0.85634806  0.27516844  0.36037563  1
  N  N45  1  0.35634806  0.22483156  0.63962437  1
  N  N46  1  0.14365194  0.77516844  0.13962437  1
  N  N47  1  0.64365194  0.72483156  0.86037563  1
  N  N48  1  0.63962437  0.14365194  0.72483156  1
  N  N49  1  0.36037563  0.64365194  0.77516844  1
  N  N50  1  0.86037563  0.85634806  0.22483156  1
  N  N51  1  0.13962437  0.35634806  0.27516844  1
  N  N52  1  0.72483156  0.63962437  0.14365194  1
  N  N53  1  0.77516844  0.36037563  0.64365194  1
  N  N54  1  0.22483156  0.86037563  0.85634806  1
  N  N55  1  0.27516844  0.13962437  0.35634806  1
  N  N56  1  0.14365194  0.72483156  0.63962437  1
  N  N57  1  0.64365194  0.77516844  0.36037563  1
  N  N58  1  0.85634806  0.22483156  0.86037563  1
  N  N59  1  0.35634806  0.27516844  0.13962437  1
  N  N60  1  0.41788832  0.72483972  0.52088598  1
  N  N61  1  0.58211168  0.22483972  0.97911402  1
  N  N62  1  0.08211168  0.27516028  0.02088598  1
  N  N63  1  0.91788832  0.77516028  0.47911402  1
  N  N64  1  0.52088598  0.41788832  0.72483972  1
  N  N65  1  0.97911402  0.58211168  0.22483972  1
  N  N66  1  0.02088598  0.08211168  0.27516028  1
  N  N67  1  0.47911402  0.91788832  0.77516028  1
  N  N68  1  0.72483972  0.52088598  0.41788832  1
  N  N69  1  0.22483972  0.97911402  0.58211168  1
  N  N70  1  0.27516028  0.02088598  0.08211168  1
  N  N71  1  0.77516028  0.47911402  0.91788832  1
  N  N72  1  0.58211168  0.27516028  0.47911402  1
  N  N73  1  0.41788832  0.77516028  0.02088598  1
  N  N74  1  0.91788832  0.72483972  0.97911402  1
  N  N75  1  0.08211168  0.22483972  0.52088598  1
  N  N76  1  0.47911402  0.58211168  0.27516028  1
  N  N77  1  0.02088598  0.41788832  0.77516028  1
  N  N78  1  0.97911402  0.91788832  0.72483972  1
  N  N79  1  0.52088598  0.08211168  0.22483972  1
  N  N80  1  0.27516028  0.47911402  0.58211168  1
  N  N81  1  0.77516028  0.02088598  0.41788832  1
  N  N82  1  0.72483972  0.97911402  0.91788832  1
  N  N83  1  0.22483972  0.52088598  0.08211168  1
