# generated using pymatgen
data_V4(PO5)3
_symmetry_space_group_name_H-M   'P 1'
_cell_length_a   7.38917900
_cell_length_b   11.69752691
_cell_length_c   19.95737796
_cell_angle_alpha   93.35201048
_cell_angle_beta   79.33163699
_cell_angle_gamma   108.41175377
_symmetry_Int_Tables_number   1
_chemical_formula_structural   V4(PO5)3
_chemical_formula_sum   'V24 P18 O90'
_cell_volume   1608.42643201
_cell_formula_units_Z   6
loop_
 _symmetry_equiv_pos_site_id
 _symmetry_equiv_pos_as_xyz
  1  'x, y, z'
loop_
 _atom_site_type_symbol
 _atom_site_label
 _atom_site_symmetry_multiplicity
 _atom_site_fract_x
 _atom_site_fract_y
 _atom_site_fract_z
 _atom_site_occupancy
  V  V0  1  0.87507200  0.39415800  0.73688200  1
  V  V1  1  0.21779600  0.60584200  0.26311800  1
  V  V2  1  0.86195400  0.89415800  0.76311800  1
  V  V3  1  0.73091400  0.10584200  0.23688200  1
  V  V4  1  0.42157200  0.72903300  0.59365000  1
  V  V5  1  0.28618900  0.27096700  0.40635000  1
  V  V6  1  0.26522200  0.22903300  0.90635000  1
  V  V7  1  0.94253900  0.77096700  0.09365000  1
  V  V8  1  0.92476500  0.23341200  0.56567200  1
  V  V9  1  0.25702500  0.76658800  0.43432800  1
  V  V10  1  0.74043800  0.73341200  0.93432800  1
  V  V11  1  0.94135300  0.26658800  0.06567200  1
  V  V12  1  0.25954400  0.58512400  0.75135800  1
  V  V13  1  0.42577800  0.41487600  0.24864200  1
  V  V14  1  0.26090200  0.08512400  0.74864200  1
  V  V15  1  0.92442000  0.91487600  0.25135800  1
  V  V16  1  0.89602700  0.07517100  0.40492400  1
  V  V17  1  0.22578000  0.92482900  0.59507600  1
  V  V18  1  0.55095100  0.57517100  0.09507600  1
  V  V19  1  0.07085700  0.42482900  0.90492400  1
  V  V20  1  0.72322500  0.43022000  0.57871200  1
  V  V21  1  0.87171800  0.56978000  0.42128800  1
  V  V22  1  0.55193800  0.93022000  0.92128800  1
  V  V23  1  0.54300500  0.06978000  0.07871200  1
  P  P24  1  0.87205200  0.16295500  0.82924500  1
  P  P25  1  0.53834200  0.83704500  0.17075500  1
  P  P26  1  0.95129600  0.66295500  0.67075500  1
  P  P27  1  0.95909700  0.33704500  0.32924500  1
  P  P28  1  0.62357400  0.99751000  0.66416900  1
  P  P29  1  0.29023200  0.00249000  0.33583100  1
  P  P30  1  0.53774200  0.49751000  0.83583100  1
  P  P31  1  0.87606300  0.50249000  0.16416900  1
  P  P32  1  0.26899000  0.32640700  0.66354100  1
  P  P33  1  0.60612400  0.67359300  0.33645900  1
  P  P34  1  0.18253100  0.82640700  0.83645900  1
  P  P35  1  0.19258300  0.17359300  0.16354100  1
  P  P36  1  0.86959600  0.83692600  0.50082600  1
  P  P37  1  0.53349700  0.16307400  0.49917400  1
  P  P38  1  0.62042200  0.33692600  0.99917400  1
  P  P39  1  0.28267100  0.66307400  0.00082600  1
  P  P40  1  0.19111600  0.50000000  0.50000000  1
  P  P41  1  0.94111600  0.00000000  0.00000000  1
  O  O42  1  0.97002600  0.07465700  0.78491900  1
  O  O43  1  0.68028700  0.92534300  0.21508100  1
  O  O44  1  0.00494400  0.57465700  0.71508100  1
  O  O45  1  0.14536900  0.42534300  0.28491900  1
  O  O46  1  0.14088500  0.98180000  0.67109700  1
  O  O47  1  0.83018200  0.01820000  0.32890300  1
  O  O48  1  0.06198200  0.48180000  0.82890300  1
  O  O49  1  0.40908500  0.51820000  0.17109700  1
  O  O50  1  0.79714000  0.35221100  0.66099500  1
  O  O51  1  0.10592400  0.64778900  0.33900500  1
  O  O52  1  0.70813500  0.85221100  0.83900500  1
  O  O53  1  0.69492900  0.14778900  0.16099500  1
  O  O54  1  0.77952900  0.08962300  0.61605300  1
  O  O55  1  0.30595900  0.91037700  0.38394700  1
  O  O56  1  0.64558200  0.58962300  0.88394700  1
  O  O57  1  0.93990500  0.41037700  0.11605300  1
  O  O58  1  0.02665200  0.24630900  0.87011600  1
  O  O59  1  0.65046000  0.75369100  0.12988400  1
  O  O60  1  0.14676900  0.74630900  0.62988400  1
  O  O61  1  0.03034300  0.25369100  0.37011600  1
  O  O62  1  0.82483400  0.24390500  0.78250300  1
  O  O63  1  0.36343200  0.75609500  0.21749700  1
  O  O64  1  0.85733700  0.74390500  0.71749700  1
  O  O65  1  0.83092900  0.25609500  0.28250300  1
  O  O66  1  0.02047700  0.18526000  0.48880100  1
  O  O67  1  0.32401700  0.81474000  0.51119900  1
  O  O68  1  0.75927700  0.68526000  0.01119900  1
  O  O69  1  0.08521700  0.31474000  0.98880100  1
  O  O70  1  0.99885300  0.41432900  0.54233300  1
  O  O71  1  0.12685700  0.58567100  0.45766700  1
  O  O72  1  0.79118700  0.91432900  0.95766700  1
  O  O73  1  0.83452400  0.08567100  0.04233300  1
  O  O74  1  0.00333200  0.89788200  0.55129400  1
  O  O75  1  0.65674400  0.10211800  0.44870600  1
  O  O76  1  0.80462500  0.39788200  0.94870600  1
  O  O77  1  0.35545000  0.60211800  0.05129400  1
  O  O78  1  0.69428600  0.08917300  0.87665100  1
  O  O79  1  0.48176400  0.91082700  0.12334900  1
  O  O80  1  0.82093700  0.58917300  0.62334900  1
  O  O81  1  0.85511300  0.41082700  0.37665100  1
  O  O82  1  0.16524200  0.41261800  0.70725600  1
  O  O83  1  0.45988000  0.58738200  0.29274400  1
  O  O84  1  0.12249800  0.91261800  0.79274400  1
  O  O85  1  0.00262400  0.08738200  0.20725600  1
  O  O86  1  0.32101800  0.57779800  0.54616400  1
  O  O87  1  0.28938500  0.42220200  0.45383600  1
  O  O88  1  0.11718300  0.07779800  0.95383600  1
  O  O89  1  0.99322000  0.92220200  0.04616400  1
  O  O90  1  0.46202500  0.40714700  0.62498900  1
  O  O91  1  0.67986700  0.59285300  0.37501100  1
  O  O92  1  0.33701300  0.90714700  0.87501100  1
  O  O93  1  0.30487800  0.09285300  0.12498900  1
  O  O94  1  0.13070000  0.25562400  0.61631900  1
  O  O95  1  0.49139500  0.74437600  0.38368100  1
  O  O96  1  0.99701800  0.75562400  0.88368100  1
  O  O97  1  0.12507600  0.24437600  0.11631900  1
  O  O98  1  0.47983900  0.90892900  0.61995300  1
  O  O99  1  0.19086200  0.09107100  0.38004700  1
  O  O100  1  0.34979100  0.40892900  0.88004700  1
  O  O101  1  0.82091000  0.59107100  0.11995300  1
  O  O102  1  0.67222400  0.75646600  0.53548700  1
  O  O103  1  0.45124600  0.24353400  0.46451300  1
  O  O104  1  0.45771200  0.25646600  0.96451300  1
  O  O105  1  0.16575800  0.74353400  0.03548700  1
  O  O106  1  0.50868800  0.06079900  0.71680400  1
  O  O107  1  0.16469300  0.93920100  0.28319600  1
  O  O108  1  0.47549200  0.56079900  0.78319600  1
  O  O109  1  0.69788900  0.43920100  0.21680400  1
  O  O110  1  0.27014800  0.74333100  0.78860800  1
  O  O111  1  0.31542500  0.25666900  0.21139200  1
  O  O112  1  0.30875600  0.24333100  0.71139200  1
  O  O113  1  0.77681600  0.75666900  0.28860800  1
  O  O114  1  0.72934100  0.50000000  0.50000000  1
  O  O115  1  0.47934100  0.00000000  0.00000000  1
  O  O116  1  0.96851800  0.75011500  0.45418100  1
  O  O117  1  0.67258400  0.24988500  0.54581900  1
  O  O118  1  0.67269900  0.25011500  0.04581900  1
  O  O119  1  0.46840300  0.74988500  0.95418100  1
  O  O120  1  0.71211100  0.92046700  0.69918800  1
  O  O121  1  0.49083200  0.07953300  0.30081200  1
  O  O122  1  0.66129900  0.42046700  0.80081200  1
  O  O123  1  0.04164400  0.57953300  0.19918800  1
  O  O124  1  0.42938100  0.66819500  0.66625700  1
  O  O125  1  0.42744200  0.33180500  0.33374300  1
  O  O126  1  0.34563700  0.16819500  0.83374300  1
  O  O127  1  0.01118500  0.83180500  0.16625700  1
  O  O128  1  0.84569300  0.93088800  0.45580600  1
  O  O129  1  0.37061000  0.06911200  0.54419400  1
  O  O130  1  0.55149900  0.43088800  0.04419400  1
  O  O131  1  0.16480400  0.56911200  0.95580600  1
