# generated using pymatgen
data_Cs3BN2
_symmetry_space_group_name_H-M   'P 1'
_cell_length_a   10.03632921
_cell_length_b   9.46795639
_cell_length_c   14.95417209
_cell_angle_alpha   90.00000188
_cell_angle_beta   138.15927623
_cell_angle_gamma   118.14367654
_symmetry_Int_Tables_number   1
_chemical_formula_structural   Cs3BN2
_chemical_formula_sum   'Cs12 B4 N8'
_cell_volume   670.26230287
_cell_formula_units_Z   4
loop_
 _symmetry_equiv_pos_site_id
 _symmetry_equiv_pos_as_xyz
  1  'x, y, z'
loop_
 _atom_site_type_symbol
 _atom_site_label
 _atom_site_symmetry_multiplicity
 _atom_site_fract_x
 _atom_site_fract_y
 _atom_site_fract_z
 _atom_site_occupancy
  Cs  Cs0  1  0.00000000  0.50000000  0.37647326  1
  Cs  Cs1  1  0.00000000  0.00000000  0.87352674  1
  Cs  Cs2  1  0.00000000  0.50000000  0.12352674  1
  Cs  Cs3  1  0.00000000  0.00000000  0.12647326  1
  Cs  Cs4  1  0.60359385  0.50000000  0.55179642  1
  Cs  Cs5  1  0.39640615  0.50000000  0.94820358  1
  Cs  Cs6  1  0.60359385  0.00000000  0.30179642  1
  Cs  Cs7  1  0.39640615  0.00000000  0.69820358  1
  Cs  Cs8  1  0.39640615  0.89640615  0.94820358  1
  Cs  Cs9  1  0.60359385  0.10359385  0.55179642  1
  Cs  Cs10  1  0.39640615  0.39640615  0.69820358  1
  Cs  Cs11  1  0.60359385  0.60359385  0.30179642  1
  B  B12  1  0.00000000  0.50000000  0.58043876  1
  B  B13  1  0.00000000  0.00000000  0.66956124  1
  B  B14  1  0.00000000  0.50000000  0.91956124  1
  B  B15  1  0.00000000  0.00000000  0.33043876  1
  N  N16  1  0.28812969  0.64406485  0.72066965  1
  N  N17  1  0.71187031  0.35593515  0.43253996  1
  N  N18  1  0.28812969  0.14406485  0.81746004  1
  N  N19  1  0.71187031  0.85593515  0.52933035  1
  N  N20  1  1.00000000  0.35593515  0.92339520  1
  N  N21  1  0.00000000  0.64406485  0.92339520  1
  N  N22  1  1.00000000  0.85593515  0.32660480  1
  N  N23  1  0.00000000  0.14406485  0.32660480  1
