# generated using pymatgen
data_CaGe7N10
_symmetry_space_group_name_H-M   'P 1'
_cell_length_a   7.18740358
_cell_length_b   7.22497036
_cell_length_c   10.25662553
_cell_angle_alpha   90.00000000
_cell_angle_beta   104.94538325
_cell_angle_gamma   90.00000000
_symmetry_Int_Tables_number   1
_chemical_formula_structural   CaGe7N10
_chemical_formula_sum   'Ca2 Ge14 N20'
_cell_volume   514.59681633
_cell_formula_units_Z   2
loop_
 _symmetry_equiv_pos_site_id
 _symmetry_equiv_pos_as_xyz
  1  'x, y, z'
loop_
 _atom_site_type_symbol
 _atom_site_label
 _atom_site_symmetry_multiplicity
 _atom_site_fract_x
 _atom_site_fract_y
 _atom_site_fract_z
 _atom_site_occupancy
  Ca  Ca0  1  0.90354770  0.98088421  0.63584372  1
  Ca  Ca1  1  0.90354770  0.01911579  0.13584372  1
  Ge  Ge2  1  0.54661962  0.97287233  0.82688545  1
  Ge  Ge3  1  0.54661962  0.02712767  0.32688545  1
  Ge  Ge4  1  0.34941905  0.02454242  0.02092668  1
  Ge  Ge5  1  0.34941905  0.97545758  0.52092668  1
  Ge  Ge6  1  0.11389505  0.39335708  0.07484882  1
  Ge  Ge7  1  0.11389505  0.60664292  0.57484882  1
  Ge  Ge8  1  0.66420039  0.36524850  0.99298726  1
  Ge  Ge9  1  0.66420039  0.63475150  0.49298726  1
  Ge  Ge10  1  0.85070360  0.62533847  0.81273994  1
  Ge  Ge11  1  0.85070360  0.37466153  0.31273994  1
  Ge  Ge12  1  0.29890517  0.62392356  0.88396246  1
  Ge  Ge13  1  0.29890517  0.37607644  0.38396246  1
  Ge  Ge14  1  0.48705147  0.36977537  0.68887727  1
  Ge  Ge15  1  0.48705147  0.63022463  0.18887727  1
  N  N16  1  0.77046002  0.86156309  0.82549240  1
  N  N17  1  0.77046002  0.13843691  0.32549240  1
  N  N18  1  0.57737425  0.12460357  0.98234066  1
  N  N19  1  0.57737425  0.87539643  0.48234066  1
  N  N20  1  0.32018115  0.87502992  0.86554664  1
  N  N21  1  0.32018115  0.12497008  0.36554664  1
  N  N22  1  0.14168821  0.15136025  0.03513970  1
  N  N23  1  0.14168821  0.84863975  0.53513970  1
  N  N24  1  0.28716527  0.50351204  0.72489455  1
  N  N25  1  0.28716527  0.49648796  0.22489455  1
  N  N26  1  0.45830902  0.11854063  0.67421539  1
  N  N27  1  0.45830902  0.88145937  0.17421539  1
  N  N28  1  0.88651423  0.37083474  0.13324636  1
  N  N29  1  0.88651423  0.62916526  0.63324636  1
  N  N30  1  0.08016570  0.58051889  0.94265528  1
  N  N31  1  0.08016570  0.41948111  0.44265528  1
  N  N32  1  0.70751320  0.41457436  0.82529173  1
  N  N33  1  0.70751320  0.58542564  0.32529173  1
  N  N34  1  0.49858690  0.54026035  0.02340568  1
  N  N35  1  0.49858690  0.45973965  0.52340568  1
