# generated using pymatgen
data_V(PbN)4
_symmetry_space_group_name_H-M   'P 1'
_cell_length_a   6.51391177
_cell_length_b   7.55343567
_cell_length_c   8.69940982
_cell_angle_alpha   72.66183287
_cell_angle_beta   86.85682910
_cell_angle_gamma   73.03477768
_symmetry_Int_Tables_number   1
_chemical_formula_structural   V(PbN)4
_chemical_formula_sum   'V2 Pb8 N8'
_cell_volume   390.56055206
_cell_formula_units_Z   2
loop_
 _symmetry_equiv_pos_site_id
 _symmetry_equiv_pos_as_xyz
  1  'x, y, z'
loop_
 _atom_site_type_symbol
 _atom_site_label
 _atom_site_symmetry_multiplicity
 _atom_site_fract_x
 _atom_site_fract_y
 _atom_site_fract_z
 _atom_site_occupancy
  V  V0  1  0.77900032  0.75353990  0.74266742  1
  V  V1  1  0.22099968  0.24646010  0.25733258  1
  Pb  Pb2  1  0.83951139  0.61458146  0.13587231  1
  Pb  Pb3  1  0.16048861  0.38541854  0.86412769  1
  Pb  Pb4  1  0.68956475  0.26840842  0.99595367  1
  Pb  Pb5  1  0.31043525  0.73159158  0.00404633  1
  Pb  Pb6  1  0.77650822  0.40304613  0.58541251  1
  Pb  Pb7  1  0.22349178  0.59695387  0.41458749  1
  Pb  Pb8  1  0.27221219  0.00159381  0.60734669  1
  Pb  Pb9  1  0.72778781  0.99840619  0.39265331  1
  N  N10  1  0.90062842  0.67055755  0.56952025  1
  N  N11  1  0.09937158  0.32944245  0.43047975  1
  N  N12  1  0.00711299  0.70035214  0.88764883  1
  N  N13  1  0.99288701  0.29964786  0.11235117  1
  N  N14  1  0.60389375  0.60767996  0.84478342  1
  N  N15  1  0.39610625  0.39232004  0.15521658  1
  N  N16  1  0.37197914  0.99774136  0.34287446  1
  N  N17  1  0.62802086  0.00225864  0.65712554  1
