# generated using pymatgen
data_Ca5NiN4
_symmetry_space_group_name_H-M   'P 1'
_cell_length_a   8.94109359
_cell_length_b   7.05319736
_cell_length_c   6.22179157
_cell_angle_alpha   90.00000000
_cell_angle_beta   90.00000000
_cell_angle_gamma   90.00000000
_symmetry_Int_Tables_number   1
_chemical_formula_structural   Ca5NiN4
_chemical_formula_sum   'Ca10 Ni2 N8'
_cell_volume   392.36669403
_cell_formula_units_Z   2
loop_
 _symmetry_equiv_pos_site_id
 _symmetry_equiv_pos_as_xyz
  1  'x, y, z'
loop_
 _atom_site_type_symbol
 _atom_site_label
 _atom_site_symmetry_multiplicity
 _atom_site_fract_x
 _atom_site_fract_y
 _atom_site_fract_z
 _atom_site_occupancy
  Ca  Ca0  1  0.55184796  0.51253872  0.26805652  1
  Ca  Ca1  1  0.94815204  0.51253872  0.26805652  1
  Ca  Ca2  1  0.55184796  0.98746128  0.26805652  1
  Ca  Ca3  1  0.94815204  0.98746128  0.26805652  1
  Ca  Ca4  1  0.44815204  0.48746128  0.73194348  1
  Ca  Ca5  1  0.05184796  0.48746128  0.73194348  1
  Ca  Ca6  1  0.44815204  0.01253872  0.73194348  1
  Ca  Ca7  1  0.05184796  0.01253872  0.73194348  1
  Ca  Ca8  1  0.75000000  0.75000000  0.74815812  1
  Ca  Ca9  1  0.25000000  0.25000000  0.25184188  1
  Ni  Ni10  1  0.75000000  0.25000000  0.95911095  1
  Ni  Ni11  1  0.25000000  0.75000000  0.04088905  1
  N  N12  1  0.75000000  0.00435079  0.99887454  1
  N  N13  1  0.75000000  0.49564921  0.99887454  1
  N  N14  1  0.25000000  0.99564921  0.00112546  1
  N  N15  1  0.25000000  0.50435079  0.00112546  1
  N  N16  1  0.53766878  0.75000000  0.53713705  1
  N  N17  1  0.96233122  0.75000000  0.53713705  1
  N  N18  1  0.46233122  0.25000000  0.46286295  1
  N  N19  1  0.03766878  0.25000000  0.46286295  1
