# generated using pymatgen
data_Ga2O3
_symmetry_space_group_name_H-M   'P 1'
_cell_length_a   10.03572252
_cell_length_b   10.07111888
_cell_length_c   10.04461977
_cell_angle_alpha   93.02739857
_cell_angle_beta   90.29631263
_cell_angle_gamma   89.48955981
_symmetry_Int_Tables_number   1
_chemical_formula_structural   Ga2O3
_chemical_formula_sum   'Ga32 O48'
_cell_volume   1013.75099596
_cell_formula_units_Z   16
loop_
 _symmetry_equiv_pos_site_id
 _symmetry_equiv_pos_as_xyz
  1  'x, y, z'
loop_
 _atom_site_type_symbol
 _atom_site_label
 _atom_site_symmetry_multiplicity
 _atom_site_fract_x
 _atom_site_fract_y
 _atom_site_fract_z
 _atom_site_occupancy
  Ga  Ga0  1  0.41159113  0.68608328  0.86073101  1
  Ga  Ga1  1  0.60838809  0.22532057  0.79682690  1
  Ga  Ga2  1  0.16929146  0.24235924  0.10629345  1
  Ga  Ga3  1  0.03367525  0.00341014  0.07240530  1
  Ga  Ga4  1  0.42346255  0.47496974  0.62397524  1
  Ga  Ga5  1  0.10015529  0.36442124  0.63814527  1
  Ga  Ga6  1  0.75818800  0.71845908  0.86068861  1
  Ga  Ga7  1  0.78061918  0.99884575  0.26572827  1
  Ga  Ga8  1  0.01001769  0.86662628  0.72262746  1
  Ga  Ga9  1  0.46148925  0.94292355  0.33974933  1
  Ga  Ga10  1  0.74706608  0.01894309  0.62218557  1
  Ga  Ga11  1  0.26456997  0.22062975  0.41752185  1
  Ga  Ga12  1  0.85825833  0.58248433  0.13657324  1
  Ga  Ga13  1  0.91706024  0.61963986  0.56325138  1
  Ga  Ga14  1  0.76641462  0.32747510  0.53954299  1
  Ga  Ga15  1  0.23720908  0.85756950  0.53086420  1
  Ga  Ga16  1  0.54292877  0.75556061  0.60802687  1
  Ga  Ga17  1  0.74231273  0.28626821  0.10144681  1
  Ga  Ga18  1  0.42860191  0.45971210  0.09882041  1
  Ga  Ga19  1  0.16711035  0.66142657  0.06304089  1
  Ga  Ga20  1  0.33266341  0.03451462  0.94330114  1
  Ga  Ga21  1  0.32856490  0.29158938  0.83146203  1
  Ga  Ga22  1  0.03813971  0.81176628  0.33931157  1
  Ga  Ga23  1  0.65960831  0.54663086  0.36339866  1
  Ga  Ga24  1  0.98441155  0.40455814  0.35606383  1
  Ga  Ga25  1  0.57206608  0.75890669  0.12503382  1
  Ga  Ga26  1  0.84506594  0.42382388  0.83024539  1
  Ga  Ga27  1  0.01867380  0.13676856  0.83998708  1
  Ga  Ga28  1  0.64577691  0.98850721  0.97287495  1
  Ga  Ga29  1  0.50681604  0.30258041  0.32703452  1
  Ga  Ga30  1  0.33748485  0.64349438  0.30550584  1
  Ga  Ga31  1  0.00369943  0.09261153  0.49521481  1
  O  O32  1  0.37864434  0.65480059  0.67591506  1
  O  O33  1  0.25326844  0.41809460  0.72561833  1
  O  O34  1  0.88149758  0.40008371  0.17504825  1
  O  O35  1  0.80499885  0.47467970  0.65842548  1
  O  O36  1  0.57104374  0.58695365  0.52174272  1
  O  O37  1  0.41216544  0.12832419  0.33471544  1
  O  O38  1  0.47135134  0.51375945  0.28575002  1
  O  O39  1  0.47125545  0.92124319  0.99041004  1
  O  O40  1  0.89788387  0.72217015  0.73799166  1
  O  O41  1  0.18714599  0.87438654  0.70019799  1
  O  O42  1  0.93186531  0.27456861  0.47194635  1
  O  O43  1  0.15910619  0.19679793  0.56104261  1
  O  O44  1  0.68140096  0.86150143  0.56800380  1
  O  O45  1  0.00137016  0.18872410  0.03547634  1
  O  O46  1  0.73607783  0.10149849  0.11587403  1
  O  O47  1  0.67414676  0.35298528  0.38253960  1
  O  O48  1  0.20077332  0.71775154  0.40102483  1
  O  O49  1  0.94242923  0.04340263  0.66983452  1
  O  O50  1  0.38880932  0.35318076  0.47179594  1
  O  O51  1  0.45332555  0.15452178  0.86737049  1
  O  O52  1  0.25512573  0.54673688  0.16287073  1
  O  O53  1  0.13312662  0.97312559  0.41479848  1
  O  O54  1  0.69540160  0.63700410  0.20666400  1
  O  O55  1  0.14492039  0.29655682  0.28760574  1
  O  O56  1  0.95082423  0.93157848  0.21391369  1
  O  O57  1  0.72122687  0.82329227  0.01705236  1
  O  O58  1  0.70184717  0.05339934  0.81761095  1
  O  O59  1  0.85137524  0.54787465  0.39627677  1
  O  O60  1  0.49202465  0.60682708  0.00926528  1
  O  O61  1  0.29895165  0.33740256  0.01876105  1
  O  O62  1  0.21883546  0.05157149  0.09920686  1
  O  O63  1  0.20661257  0.13829203  0.84168962  1
  O  O64  1  0.55507121  0.31659167  0.14176580  1
  O  O65  1  0.23839529  0.73357534  0.92562617  1
  O  O66  1  0.06639805  0.49724635  0.52200245  1
  O  O67  1  0.62443868  0.90819644  0.26068758  1
  O  O68  1  0.58812654  0.73197282  0.79299701  1
  O  O69  1  0.41891645  0.87970959  0.50577274  1
  O  O70  1  0.73064212  0.31660409  0.91860007  1
  O  O71  1  0.49942054  0.38002856  0.76366527  1
  O  O72  1  0.99007731  0.31405679  0.78146061  1
  O  O73  1  0.84428947  0.57402918  0.94710088  1
  O  O74  1  0.67639699  0.19737305  0.62127879  1
  O  O75  1  0.96438508  0.78630818  0.50467247  1
  O  O76  1  0.82709648  0.04612508  0.43658737  1
  O  O77  1  0.01564826  0.68166328  0.16966385  1
  O  O78  1  0.40844139  0.79199392  0.22671073  1
  O  O79  1  0.98783840  0.95518413  0.89974048  1
