# generated using pymatgen
data_Y(FeO2)2
_symmetry_space_group_name_H-M   'P 1'
_cell_length_a   3.50588035
_cell_length_b   8.79180134
_cell_length_c   6.12205259
_cell_angle_alpha   103.91934053
_cell_angle_beta   90.50340797
_cell_angle_gamma   90.62399223
_symmetry_Int_Tables_number   1
_chemical_formula_structural   Y(FeO2)2
_chemical_formula_sum   'Y2 Fe4 O8'
_cell_volume   183.13542688
_cell_formula_units_Z   2
loop_
 _symmetry_equiv_pos_site_id
 _symmetry_equiv_pos_as_xyz
  1  'x, y, z'
loop_
 _atom_site_type_symbol
 _atom_site_label
 _atom_site_symmetry_multiplicity
 _atom_site_fract_x
 _atom_site_fract_y
 _atom_site_fract_z
 _atom_site_occupancy
  Y  Y0  1  0.49965140  0.99988258  0.49986208  1
  Y  Y1  1  0.99986731  0.00016617  0.00000453  1
  Fe  Fe2  1  0.49887887  0.36188657  0.29177390  1
  Fe  Fe3  1  0.50136279  0.63826865  0.70840351  1
  Fe  Fe4  1  0.00955428  0.35665162  0.79055887  1
  Fe  Fe5  1  0.99072684  0.64320460  0.20921308  1
  O  O6  1  0.50386757  0.61120036  0.38267862  1
  O  O7  1  0.00311870  0.61642301  0.85895916  1
  O  O8  1  0.49656942  0.38867630  0.61771770  1
  O  O9  1  0.99727396  0.38366226  0.14115416  1
  O  O10  1  0.50273856  0.13159243  0.20995155  1
  O  O11  1  0.00807537  0.11873860  0.71046612  1
  O  O12  1  0.49712071  0.86853888  0.79011735  1
  O  O13  1  0.99119422  0.88110796  0.28913937  1
