# generated using pymatgen
data_Al2O3
_symmetry_space_group_name_H-M   'P 1'
_cell_length_a   10.17372957
_cell_length_b   10.43683181
_cell_length_c   10.62314251
_cell_angle_alpha   88.02867419
_cell_angle_beta   81.66492840
_cell_angle_gamma   87.65392418
_symmetry_Int_Tables_number   1
_chemical_formula_structural   Al2O3
_chemical_formula_sum   'Al40 O60'
_cell_volume   1114.66882411
_cell_formula_units_Z   20
loop_
 _symmetry_equiv_pos_site_id
 _symmetry_equiv_pos_as_xyz
  1  'x, y, z'
loop_
 _atom_site_type_symbol
 _atom_site_label
 _atom_site_symmetry_multiplicity
 _atom_site_fract_x
 _atom_site_fract_y
 _atom_site_fract_z
 _atom_site_occupancy
  Al  Al0  1  0.30236500  0.64409354  0.31456076  1
  Al  Al1  1  0.43791391  0.02721871  0.53587737  1
  Al  Al2  1  0.63905702  0.64680263  0.66058843  1
  Al  Al3  1  0.89389223  0.76468030  0.92700130  1
  Al  Al4  1  0.45202810  0.87373953  0.78794154  1
  Al  Al5  1  0.91516179  0.76003277  0.68885141  1
  Al  Al6  1  0.36426306  0.32209787  0.46987771  1
  Al  Al7  1  0.11128881  0.97750829  0.95396262  1
  Al  Al8  1  0.25903112  0.76833471  0.99898388  1
  Al  Al9  1  0.83640506  0.44829575  0.55316533  1
  Al  Al10  1  0.80848678  0.76080076  0.29676004  1
  Al  Al11  1  0.71429838  0.27440904  0.10904359  1
  Al  Al12  1  0.95039245  0.10734370  0.29536076  1
  Al  Al13  1  0.41425762  0.77904556  0.48231598  1
  Al  Al14  1  0.18123226  0.80277227  0.69171665  1
  Al  Al15  1  0.06437765  0.22794321  0.05041769  1
  Al  Al16  1  0.93445880  0.39335686  0.89587241  1
  Al  Al17  1  0.67463741  0.24512106  0.40856991  1
  Al  Al18  1  0.66706545  0.97658255  0.34985755  1
  Al  Al19  1  0.40690453  0.28598322  0.06496557  1
  Al  Al20  1  0.28819217  0.17272909  0.27116080  1
  Al  Al21  1  0.83391961  0.00284792  0.08642545  1
  Al  Al22  1  0.54803653  0.79436524  0.01527855  1
  Al  Al23  1  0.29928836  0.88734345  0.21237342  1
  Al  Al24  1  0.12095914  0.52860243  0.55917235  1
  Al  Al25  1  0.99526506  0.21286206  0.50012382  1
  Al  Al26  1  0.73794506  0.94264478  0.58202164  1
  Al  Al27  1  0.45794517  0.55722978  0.94501036  1
  Al  Al28  1  0.61045789  0.51344498  0.36838150  1
  Al  Al29  1  0.72853441  0.61059590  0.07192682  1
  Al  Al30  1  0.19928011  0.48330978  0.02275745  1
  Al  Al31  1  0.67331414  0.39663145  0.86002727  1
  Al  Al32  1  0.25324901  0.45750499  0.73699284  1
  Al  Al33  1  0.11055072  0.40872430  0.32859035  1
  Al  Al34  1  0.13919084  0.23146265  0.74896201  1
  Al  Al35  1  0.02839017  0.64213727  0.15389062  1
  Al  Al36  1  0.44547096  0.18187919  0.78565758  1
  Al  Al37  1  0.14547916  0.93776461  0.46456294  1
  Al  Al38  1  0.52396964  0.05227580  0.04281399  1
  Al  Al39  1  0.75282292  0.20189287  0.69745090  1
  O  O40  1  0.75193728  0.89826904  0.20651647  1
  O  O41  1  0.54302769  0.93609371  0.90449776  1
  O  O42  1  0.49090168  0.75757554  0.64380964  1
  O  O43  1  0.58921729  0.53858979  0.79840057  1
  O  O44  1  0.08837657  0.38215814  0.96904302  1
  O  O45  1  0.08403425  0.16566136  0.62061708  1
  O  O46  1  0.36117703  0.15545158  0.46777612  1
  O  O47  1  0.82735585  0.31693978  0.78335831  1
  O  O48  1  0.98624915  0.07393930  0.13323446  1
  O  O49  1  0.30045066  0.71705134  0.16224143  1
  O  O50  1  0.44357590  0.02964296  0.70632896  1
  O  O51  1  0.99095481  0.04038177  0.44086014  1
  O  O52  1  0.79631161  0.04345892  0.68391630  1
  O  O53  1  0.79833485  0.27700437  0.53094069  1
  O  O54  1  0.50484636  0.91228072  0.41068309  1
  O  O55  1  0.55182836  0.61872036  0.06332841  1
  O  O56  1  0.76286275  0.86199371  0.43531286  1
  O  O57  1  0.88434248  0.27529847  0.03420352  1
  O  O58  1  0.78644382  0.49207057  0.94629254  1
  O  O59  1  0.45373871  0.16862699  0.18328361  1
  O  O60  1  0.89999968  0.65467506  0.06199106  1
  O  O61  1  0.21682829  0.86532566  0.83911684  1
  O  O62  1  0.14348176  0.65126650  0.00707599  1
  O  O63  1  0.58999081  0.33911437  0.01162255  1
  O  O64  1  0.29114735  0.90351263  0.57570291  1
  O  O65  1  0.19304668  0.63476284  0.66865906  1
  O  O66  1  0.69403978  0.54562156  0.51489115  1
  O  O67  1  0.08819911  0.48602167  0.18410896  1
  O  O68  1  0.30728571  0.27484968  0.74822535  1
  O  O69  1  0.42118121  0.73723523  0.91197576  1
  O  O70  1  0.77011743  0.12271175  0.30599829  1
  O  O71  1  0.35853691  0.45166145  0.07449557  1
  O  O72  1  0.16842887  0.55976529  0.39052110  1
  O  O73  1  0.07660930  0.40360300  0.74684152  1
  O  O74  1  0.72111266  0.77129678  0.98140489  1
  O  O75  1  0.26736521  0.79977528  0.38213564  1
  O  O76  1  0.69253283  0.35843086  0.26236357  1
  O  O77  1  0.27626170  0.43444496  0.56953745  1
  O  O78  1  0.21312199  0.92001291  0.06849986  1
  O  O79  1  0.45403982  0.62530169  0.39234436  1
  O  O80  1  0.97932491  0.74125611  0.27937881  1
  O  O81  1  0.21763873  0.22847939  0.12432638  1
  O  O82  1  0.94668598  0.91781085  0.96935323  1
  O  O83  1  0.59439524  0.26769400  0.75328301  1
  O  O84  1  0.00848998  0.40415521  0.49884341  1
  O  O85  1  0.22581356  0.01804713  0.31164979  1
  O  O86  1  0.01570275  0.25593857  0.32784129  1
  O  O87  1  0.53530449  0.36043254  0.45453788  1
  O  O88  1  0.31984014  0.51045820  0.86511527  1
  O  O89  1  0.04846231  0.85217531  0.60192950  1
  O  O90  1  0.85256271  0.55021004  0.68444587  1
  O  O91  1  0.74031090  0.78787372  0.67026269  1
  O  O92  1  0.71332220  0.62473232  0.25864551  1
  O  O93  1  0.47049218  0.90729619  0.13793739  1
  O  O94  1  0.42842077  0.16102555  0.95010916  1
  O  O95  1  0.10678555  0.13774150  0.89670639  1
  O  O96  1  0.94817616  0.62247934  0.58274409  1
  O  O97  1  0.62299640  0.07854850  0.50283717  1
  O  O98  1  0.26815038  0.32897182  0.33941747  1
  O  O99  1  0.69327790  0.10224829  0.06023267  1
