# generated using pymatgen
data_La2O3
_symmetry_space_group_name_H-M   'P 1'
_cell_length_a   6.37018344
_cell_length_b   6.37036220
_cell_length_c   3.28989404
_cell_angle_alpha   90.00125570
_cell_angle_beta   89.99846889
_cell_angle_gamma   120.01047258
_symmetry_Int_Tables_number   1
_chemical_formula_structural   La2O3
_chemical_formula_sum   'La2 O3'
_cell_volume   115.60663662
_cell_formula_units_Z   1
loop_
 _symmetry_equiv_pos_site_id
 _symmetry_equiv_pos_as_xyz
  1  'x, y, z'
loop_
 _atom_site_type_symbol
 _atom_site_label
 _atom_site_symmetry_multiplicity
 _atom_site_fract_x
 _atom_site_fract_y
 _atom_site_fract_z
 _atom_site_occupancy
  La  La0  1  0.33331560  0.66667404  0.50190361  1
  La  La1  1  0.66666324  0.33330424  0.49811002  1
  O  O2  1  0.49540976  0.49540741  0.99999366  1
  O  O3  1  0.00000838  0.50460681  0.00001770  1
  O  O4  1  0.50460302  0.00000649  0.99997500  1
