# generated using pymatgen
data_Si7GeN10
_symmetry_space_group_name_H-M   'P 1'
_cell_length_a   6.96131608
_cell_length_b   6.75012062
_cell_length_c   9.77788796
_cell_angle_alpha   90.00000000
_cell_angle_beta   106.51030780
_cell_angle_gamma   90.00000000
_symmetry_Int_Tables_number   1
_chemical_formula_structural   Si7GeN10
_chemical_formula_sum   'Si14 Ge2 N20'
_cell_volume   440.51607082
_cell_formula_units_Z   2
loop_
 _symmetry_equiv_pos_site_id
 _symmetry_equiv_pos_as_xyz
  1  'x, y, z'
loop_
 _atom_site_type_symbol
 _atom_site_label
 _atom_site_symmetry_multiplicity
 _atom_site_fract_x
 _atom_site_fract_y
 _atom_site_fract_z
 _atom_site_occupancy
  Si  Si0  1  0.54035981  0.97310091  0.82797980  1
  Si  Si1  1  0.54035981  0.02689909  0.32797980  1
  Si  Si2  1  0.35705505  0.03244852  0.01666337  1
  Si  Si3  1  0.35705505  0.96755148  0.51666337  1
  Si  Si4  1  0.09765172  0.40721561  0.07552964  1
  Si  Si5  1  0.09765172  0.59278439  0.57552964  1
  Si  Si6  1  0.66034345  0.36878096  0.99143977  1
  Si  Si7  1  0.66034345  0.63121904  0.49143977  1
  Si  Si8  1  0.84014368  0.62092791  0.80390883  1
  Si  Si9  1  0.84014368  0.37907209  0.30390883  1
  Si  Si10  1  0.28860517  0.61390516  0.88312165  1
  Si  Si11  1  0.28860517  0.38609484  0.38312165  1
  Si  Si12  1  0.47767473  0.37325936  0.68778316  1
  Si  Si13  1  0.47767473  0.62674064  0.18778316  1
  Ge  Ge14  1  0.09471070  0.01962358  0.68234262  1
  Ge  Ge15  1  0.09471070  0.98037642  0.18234262  1
  N  N16  1  0.72479106  0.83190135  0.81846529  1
  N  N17  1  0.72479106  0.16809865  0.31846529  1
  N  N18  1  0.55212363  0.13848281  0.96842908  1
  N  N19  1  0.55212363  0.86151719  0.46842908  1
  N  N20  1  0.31021330  0.87228822  0.86354779  1
  N  N21  1  0.31021330  0.12771178  0.36354779  1
  N  N22  1  0.16508102  0.16666107  0.04503097  1
  N  N23  1  0.16508102  0.83333893  0.54503097  1
  N  N24  1  0.28058133  0.49943021  0.72440604  1
  N  N25  1  0.28058133  0.50056979  0.22440604  1
  N  N26  1  0.41727241  0.11657441  0.67144340  1
  N  N27  1  0.41727241  0.88342559  0.17144340  1
  N  N28  1  0.87995081  0.38888133  0.12984704  1
  N  N29  1  0.87995081  0.61111867  0.62984704  1
  N  N30  1  0.07155367  0.57050101  0.93194285  1
  N  N31  1  0.07155367  0.42949899  0.43194285  1
  N  N32  1  0.69426126  0.41428944  0.82377808  1
  N  N33  1  0.69426126  0.58571056  0.32377808  1
  N  N34  1  0.48992620  0.53984857  0.02363963  1
  N  N35  1  0.48992620  0.46015143  0.52363963  1
