# generated using pymatgen
data_SnCN2
_symmetry_space_group_name_H-M   'P 1'
_cell_length_a   3.90325660
_cell_length_b   5.54646158
_cell_length_c   15.20392447
_cell_angle_alpha   23.97295981
_cell_angle_beta   89.99962069
_cell_angle_gamma   69.39781528
_symmetry_Int_Tables_number   1
_chemical_formula_structural   SnCN2
_chemical_formula_sum   'Sn1 C1 N2'
_cell_volume   66.86823161
_cell_formula_units_Z   1
loop_
 _symmetry_equiv_pos_site_id
 _symmetry_equiv_pos_as_xyz
  1  'x, y, z'
loop_
 _atom_site_type_symbol
 _atom_site_label
 _atom_site_symmetry_multiplicity
 _atom_site_fract_x
 _atom_site_fract_y
 _atom_site_fract_z
 _atom_site_occupancy
  Sn  Sn0  1  0.00000046  0.99992043  0.00001770  1
  C  C1  1  0.00000014  0.99999515  0.49999315  1
  N  N2  1  0.99999972  0.99999472  0.41839250  1
  N  N3  1  0.99999967  0.99998970  0.58159665  1
