# generated using pymatgen
data_Sc5(SiN3)3
_symmetry_space_group_name_H-M   'P 1'
_cell_length_a   7.35831177
_cell_length_b   10.53344525
_cell_length_c   14.66567259
_cell_angle_alpha   90.00000000
_cell_angle_beta   90.00000000
_cell_angle_gamma   135.70481801
_symmetry_Int_Tables_number   1
_chemical_formula_structural   Sc5(SiN3)3
_chemical_formula_sum   'Sc20 Si12 N36'
_cell_volume   793.82892912
_cell_formula_units_Z   4
loop_
 _symmetry_equiv_pos_site_id
 _symmetry_equiv_pos_as_xyz
  1  'x, y, z'
loop_
 _atom_site_type_symbol
 _atom_site_label
 _atom_site_symmetry_multiplicity
 _atom_site_fract_x
 _atom_site_fract_y
 _atom_site_fract_z
 _atom_site_occupancy
  Sc  Sc0  1  0.00000000  0.50698674  0.83242689  1
  Sc  Sc1  1  -0.00000000  0.49301326  0.16757311  1
  Sc  Sc2  1  -0.00000000  0.99301326  0.33242689  1
  Sc  Sc3  1  0.00000000  0.00698674  0.66757311  1
  Sc  Sc4  1  0.37121992  0.96446956  0.86642608  1
  Sc  Sc5  1  0.37121992  0.40675036  0.13357392  1
  Sc  Sc6  1  0.37121992  0.90675036  0.36642608  1
  Sc  Sc7  1  0.37121992  0.46446956  0.63357392  1
  Sc  Sc8  1  0.62878008  0.03553044  0.13357392  1
  Sc  Sc9  1  0.62878008  0.59324964  0.86642608  1
  Sc  Sc10  1  0.62878008  0.09324964  0.63357392  1
  Sc  Sc11  1  0.62878008  0.53553044  0.36642608  1
  Sc  Sc12  1  -0.00000000  0.50952222  0.60348996  1
  Sc  Sc13  1  0.00000000  0.49047778  0.39651004  1
  Sc  Sc14  1  0.00000000  0.99047778  0.10348996  1
  Sc  Sc15  1  -0.00000000  0.00952222  0.89651004  1
  Sc  Sc16  1  0.55517267  0.27758634  -0.00000000  1
  Sc  Sc17  1  0.55517267  0.77758634  0.50000000  1
  Sc  Sc18  1  0.44482733  0.72241366  -0.00000000  1
  Sc  Sc19  1  0.44482733  0.22241366  0.50000000  1
  Si  Si20  1  -0.00000000  0.75334583  0.01496986  1
  Si  Si21  1  0.00000000  0.24665417  0.98503014  1
  Si  Si22  1  0.00000000  0.74665417  0.51496986  1
  Si  Si23  1  -0.00000000  0.25334583  0.48503014  1
  Si  Si24  1  -0.00000000  0.24584166  0.77807146  1
  Si  Si25  1  0.00000000  0.75415834  0.22192854  1
  Si  Si26  1  0.00000000  0.25415834  0.27807146  1
  Si  Si27  1  -0.00000000  0.74584166  0.72192854  1
  Si  Si28  1  0.50000000  0.79086900  0.75000000  1
  Si  Si29  1  0.50000000  0.70913100  0.25000000  1
  Si  Si30  1  0.50000000  0.20913100  0.25000000  1
  Si  Si31  1  0.50000000  0.29086900  0.75000000  1
  N  N32  1  0.00000000  0.36428712  0.69582259  1
  N  N33  1  1.00000000  0.63571288  0.30417741  1
  N  N34  1  1.00000000  0.13571288  0.19582259  1
  N  N35  1  0.00000000  0.86428712  0.80417741  1
  N  N36  1  0.00000000  0.31294565  0.88133190  1
  N  N37  1  1.00000000  0.68705435  0.11866810  1
  N  N38  1  1.00000000  0.18705435  0.38133190  1
  N  N39  1  0.00000000  0.81294565  0.61866810  1
  N  N40  1  0.74811782  0.52137244  0.74159597  1
  N  N41  1  0.74811782  0.22674538  0.25840403  1
  N  N42  1  0.74811782  0.72674538  0.24159597  1
  N  N43  1  0.74811782  0.02137244  0.75840403  1
  N  N44  1  0.25188218  0.47862756  0.25840403  1
  N  N45  1  0.25188218  0.77325462  0.74159597  1
  N  N46  1  0.25188218  0.27325462  0.75840403  1
  N  N47  1  0.25188218  0.97862756  0.24159597  1
  N  N48  1  0.54076470  0.23035344  0.85116583  1
  N  N49  1  0.54076470  0.31041126  0.14883417  1
  N  N50  1  0.54076470  0.81041126  0.35116583  1
  N  N51  1  0.54076470  0.73035344  0.64883417  1
  N  N52  1  0.45923530  0.76964656  0.14883417  1
  N  N53  1  0.45923530  0.68958874  0.85116583  1
  N  N54  1  0.45923530  0.18958874  0.64883417  1
  N  N55  1  0.45923530  0.26964656  0.35116583  1
  N  N56  1  0.26015345  0.99137975  0.99991055  1
  N  N57  1  0.26015345  0.26877470  0.00008945  1
  N  N58  1  0.26015345  0.76877470  0.49991055  1
  N  N59  1  0.26015345  0.49137975  0.50008945  1
  N  N60  1  0.73984655  0.00862025  0.00008945  1
  N  N61  1  0.73984655  0.73122530  0.99991055  1
  N  N62  1  0.73984655  0.23122530  0.50008945  1
  N  N63  1  0.73984655  0.50862025  0.49991055  1
  N  N64  1  1.00000000  0.63721434  0.93437998  1
  N  N65  1  0.00000000  0.36278566  0.06562002  1
  N  N66  1  0.00000000  0.86278566  0.43437998  1
  N  N67  1  1.00000000  0.13721434  0.56562002  1
