# generated using pymatgen
data_Al2O3
_symmetry_space_group_name_H-M   'P 1'
_cell_length_a   10.32268164
_cell_length_b   9.90617624
_cell_length_c   11.17170331
_cell_angle_alpha   94.77100639
_cell_angle_beta   90.88144572
_cell_angle_gamma   93.16483656
_symmetry_Int_Tables_number   1
_chemical_formula_structural   Al2O3
_chemical_formula_sum   'Al40 O60'
_cell_volume   1136.47570684
_cell_formula_units_Z   20
loop_
 _symmetry_equiv_pos_site_id
 _symmetry_equiv_pos_as_xyz
  1  'x, y, z'
loop_
 _atom_site_type_symbol
 _atom_site_label
 _atom_site_symmetry_multiplicity
 _atom_site_fract_x
 _atom_site_fract_y
 _atom_site_fract_z
 _atom_site_occupancy
  Al  Al0  1  0.82520431  0.38159117  0.76695914  1
  Al  Al1  1  0.61077490  0.81352664  0.18192177  1
  Al  Al2  1  0.63230956  0.74833846  0.73822297  1
  Al  Al3  1  0.09237808  0.73204044  0.33556728  1
  Al  Al4  1  0.89476457  0.51150315  0.18991014  1
  Al  Al5  1  0.30253534  0.87039105  0.52537677  1
  Al  Al6  1  0.05023136  0.62105049  0.72336285  1
  Al  Al7  1  0.01257909  0.20463966  0.56483443  1
  Al  Al8  1  0.54642550  0.27399212  0.16091402  1
  Al  Al9  1  0.81787537  0.25638189  0.00788786  1
  Al  Al10  1  0.31563007  0.59481222  0.46523816  1
  Al  Al11  1  0.21181505  0.41475915  0.65424012  1
  Al  Al12  1  0.74030150  0.40658356  0.42908335  1
  Al  Al13  1  0.84965035  0.72080665  0.53125249  1
  Al  Al14  1  0.45587739  0.98577564  0.06731961  1
  Al  Al15  1  0.06115136  0.90096773  0.66263701  1
  Al  Al16  1  0.13776808  0.04088706  0.14929503  1
  Al  Al17  1  0.72796998  0.92545181  0.94878050  1
  Al  Al18  1  0.57606699  0.26573322  0.62048135  1
  Al  Al19  1  0.47949691  0.07765571  0.38312118  1
  Al  Al20  1  0.50254267  0.01807973  0.77142875  1
  Al  Al21  1  0.19299081  0.60090518  0.94043307  1
  Al  Al22  1  0.87350461  0.65563771  0.92653386  1
  Al  Al23  1  0.02746994  0.98728021  0.42845314  1
  Al  Al24  1  0.35181833  0.84326659  0.24196764  1
  Al  Al25  1  0.42363524  0.35489458  0.41648336  1
  Al  Al26  1  0.11126711  0.32106677  0.04123082  1
  Al  Al27  1  0.61877552  0.46923912  0.85934597  1
  Al  Al28  1  0.04065147  0.88591687  0.89657444  1
  Al  Al29  1  0.76081637  0.08378674  0.47129518  1
  Al  Al30  1  0.88839550  0.94886806  0.21448941  1
  Al  Al31  1  0.59952683  0.54822909  0.28627079  1
  Al  Al32  1  0.58471717  0.80459586  0.46703447  1
  Al  Al33  1  0.28439923  0.13135240  0.98111095  1
  Al  Al34  1  0.32890354  0.82349236  0.80231645  1
  Al  Al35  1  0.48059319  0.68480857  0.93674868  1
  Al  Al36  1  0.33529410  0.55054770  0.18339094  1
  Al  Al37  1  0.06317399  0.20283056  0.80427720  1
  Al  Al38  1  0.87944135  0.22067283  0.24342012  1
  Al  Al39  1  0.98623046  0.48140495  0.44262425  1
  O  O40  1  0.05984271  0.90984940  0.26659176  1
  O  O41  1  0.20419897  0.20874900  0.12287185  1
  O  O42  1  0.75675662  0.09370948  0.97042057  1
  O  O43  1  0.90528280  0.04139508  0.54622434  1
  O  O44  1  0.47576885  0.22445865  0.29787577  1
  O  O45  1  0.91903713  0.26244038  0.69346962  1
  O  O46  1  0.18430133  0.52508668  0.78594045  1
  O  O47  1  0.14791546  0.95261954  0.54133130  1
  O  O48  1  0.74360235  0.37052592  0.91112055  1
  O  O49  1  0.95434949  0.75250888  0.65629513  1
  O  O50  1  0.38580568  0.98722551  0.89570899  1
  O  O51  1  0.15237128  0.24648391  0.66468113  1
  O  O52  1  0.89758522  0.32842762  0.38676717  1
  O  O53  1  0.56397704  0.84680352  0.01251974  1
  O  O54  1  0.46698902  0.71512254  0.77495366  1
  O  O55  1  0.60834229  0.98614851  0.46578740  1
  O  O56  1  0.52328786  0.96097005  0.22569392  1
  O  O57  1  0.95519522  0.34825615  0.14327287  1
  O  O58  1  0.87116792  0.83953010  0.91169601  1
  O  O59  1  0.16358432  0.79798929  0.75041300  1
  O  O60  1  0.07676280  0.16123264  0.42148606  1
  O  O61  1  0.97658834  0.27841187  0.93041341  1
  O  O62  1  0.45380475  0.70233577  0.16843196  1
  O  O63  1  0.03122829  0.01855282  0.78218615  1
  O  O64  1  0.84007964  0.54318149  0.50826758  1
  O  O65  1  0.45679226  0.16435622  0.05048436  1
  O  O66  1  0.91159935  0.54054922  0.79145240  1
  O  O67  1  0.20847394  0.49099694  0.06158402  1
  O  O68  1  0.19166742  0.71307759  0.47332923  1
  O  O69  1  0.20865658  0.24796904  0.89855536  1
  O  O70  1  0.72169498  0.25422572  0.15994936  1
  O  O71  1  0.33819785  0.45450897  0.55469101  1
  O  O72  1  0.50189345  0.44979067  0.17398133  1
  O  O73  1  0.01557367  0.56565974  0.30958730  1
  O  O74  1  0.81757338  0.06474725  0.32295299  1
  O  O75  1  0.96735099  0.09028646  0.15463502  1
  O  O76  1  0.14063277  0.99435596  0.98965854  1
  O  O77  1  0.43099710  0.73391214  0.49369340  1
  O  O78  1  0.32866829  0.48201275  0.33319396  1
  O  O79  1  0.94009527  0.80441895  0.41919682  1
  O  O80  1  0.75727095  0.49373391  0.28182819  1
  O  O81  1  0.70451779  0.24910479  0.50837729  1
  O  O82  1  0.23271376  0.70526567  0.24240822  1
  O  O83  1  0.57458514  0.46268858  0.42418071  1
  O  O84  1  0.68975523  0.75736366  0.58427042  1
  O  O85  1  0.54594207  0.17727127  0.74197782  1
  O  O86  1  0.65818791  0.41389117  0.70393392  1
  O  O87  1  0.76793426  0.85601230  0.13323558  1
  O  O88  1  0.69177456  0.64778253  0.85598550  1
  O  O89  1  0.63476562  0.72984559  0.32535038  1
  O  O90  1  0.38171489  0.92340486  0.67021947  1
  O  O91  1  0.64212777  0.91984432  0.79772568  1
  O  O92  1  0.08001326  0.49392210  0.57778265  1
  O  O93  1  0.48323736  0.50992372  0.93699530  1
  O  O94  1  0.44816806  0.21568408  0.51094415  1
  O  O95  1  0.86237651  0.59763242  0.06871433  1
  O  O96  1  0.31577783  0.73119363  0.94381469  1
  O  O97  1  0.05536727  0.70176214  0.92815161  1
  O  O98  1  0.29992117  0.96228782  0.14492698  1
  O  O99  1  0.35287471  0.94429732  0.38925013  1
