# generated using pymatgen
data_In(C2N3)3
_symmetry_space_group_name_H-M   'P 1'
_cell_length_a   7.35777423
_cell_length_b   12.73589457
_cell_length_c   11.32794953
_cell_angle_alpha   90.00000000
_cell_angle_beta   90.00000000
_cell_angle_gamma   30.06336663
_symmetry_Int_Tables_number   1
_chemical_formula_structural   In(C2N3)3
_chemical_formula_sum   'In2 C12 N18'
_cell_volume   531.77520605
_cell_formula_units_Z   2
loop_
 _symmetry_equiv_pos_site_id
 _symmetry_equiv_pos_as_xyz
  1  'x, y, z'
loop_
 _atom_site_type_symbol
 _atom_site_label
 _atom_site_symmetry_multiplicity
 _atom_site_fract_x
 _atom_site_fract_y
 _atom_site_fract_z
 _atom_site_occupancy
  In  In0  1  0.00000000  0.28111274  0.25000000  1
  In  In1  1  1.00000000  0.71888726  0.75000000  1
  C  C2  1  0.68980607  0.76689846  0.25000000  1
  C  C3  1  0.68980607  0.54329647  0.75000000  1
  C  C4  1  0.31019393  0.23310154  0.75000000  1
  C  C5  1  0.31019393  0.45670353  0.25000000  1
  C  C6  1  0.68935957  0.29922823  0.91767822  1
  C  C7  1  0.68935957  0.01141220  0.08232178  1
  C  C8  1  0.68935957  0.29922823  0.58232178  1
  C  C9  1  0.68935957  0.01141220  0.41767822  1
  C  C10  1  0.31064043  0.70077177  0.08232178  1
  C  C11  1  0.31064043  0.98858780  0.91767822  1
  C  C12  1  0.31064043  0.70077177  0.41767822  1
  C  C13  1  0.31064043  0.98858780  0.58232178  1
  N  N14  1  0.00000000  0.56544192  0.25000000  1
  N  N15  1  1.00000000  0.43455808  0.75000000  1
  N  N16  1  0.39388270  0.94999410  0.25000000  1
  N  N17  1  0.39388270  0.65612320  0.75000000  1
  N  N18  1  0.60611730  0.05000590  0.75000000  1
  N  N19  1  0.60611730  0.34387680  0.25000000  1
  N  N20  1  0.00000000  0.13472816  0.96835629  1
  N  N21  1  1.00000000  0.86527184  0.03164371  1
  N  N22  1  0.00000000  0.13472816  0.53164371  1
  N  N23  1  1.00000000  0.86527184  0.46835629  1
  N  N24  1  0.39227290  0.45481660  0.87997315  1
  N  N25  1  0.39227290  0.15291050  0.12002685  1
  N  N26  1  0.39227290  0.45481660  0.62002685  1
  N  N27  1  0.39227290  0.15291050  0.37997315  1
  N  N28  1  0.60772710  0.54518340  0.12002685  1
  N  N29  1  0.60772710  0.84708950  0.87997315  1
  N  N30  1  0.60772710  0.54518340  0.37997315  1
  N  N31  1  0.60772710  0.84708950  0.62002685  1
