# generated using pymatgen
data_Ba7TiN6
_symmetry_space_group_name_H-M   'P 1'
_cell_length_a   12.63641167
_cell_length_b   7.07076731
_cell_length_c   14.58961006
_cell_angle_alpha   90.00000000
_cell_angle_beta   90.00000000
_cell_angle_gamma   90.00000000
_symmetry_Int_Tables_number   1
_chemical_formula_structural   Ba7TiN6
_chemical_formula_sum   'Ba28 Ti4 N24'
_cell_volume   1303.56891559
_cell_formula_units_Z   4
loop_
 _symmetry_equiv_pos_site_id
 _symmetry_equiv_pos_as_xyz
  1  'x, y, z'
loop_
 _atom_site_type_symbol
 _atom_site_label
 _atom_site_symmetry_multiplicity
 _atom_site_fract_x
 _atom_site_fract_y
 _atom_site_fract_z
 _atom_site_occupancy
  Ba  Ba0  1  0.03427659  0.74225247  0.98010024  1
  Ba  Ba1  1  0.46572341  0.75774753  0.48010024  1
  Ba  Ba2  1  0.53427659  0.75774753  0.01989976  1
  Ba  Ba3  1  0.96572341  0.74225247  0.51989976  1
  Ba  Ba4  1  0.96572341  0.25774753  0.01989976  1
  Ba  Ba5  1  0.53427659  0.24225247  0.51989976  1
  Ba  Ba6  1  0.46572341  0.24225247  0.98010024  1
  Ba  Ba7  1  0.03427659  0.25774753  0.48010024  1
  Ba  Ba8  1  0.22673189  0.83643354  0.62733471  1
  Ba  Ba9  1  0.27326811  0.66356646  0.12733471  1
  Ba  Ba10  1  0.72673189  0.66356646  0.37266529  1
  Ba  Ba11  1  0.77326811  0.83643354  0.87266529  1
  Ba  Ba12  1  0.77326811  0.16356646  0.37266529  1
  Ba  Ba13  1  0.72673189  0.33643354  0.87266529  1
  Ba  Ba14  1  0.27326811  0.33643354  0.62733471  1
  Ba  Ba15  1  0.22673189  0.16356646  0.12733471  1
  Ba  Ba16  1  0.28735047  0.59791215  0.87426556  1
  Ba  Ba17  1  0.21264953  0.90208785  0.37426556  1
  Ba  Ba18  1  0.78735047  0.90208785  0.12573444  1
  Ba  Ba19  1  0.71264953  0.59791215  0.62573444  1
  Ba  Ba20  1  0.71264953  0.40208785  0.12573444  1
  Ba  Ba21  1  0.78735047  0.09791215  0.62573444  1
  Ba  Ba22  1  0.21264953  0.09791215  0.87426556  1
  Ba  Ba23  1  0.28735047  0.40208785  0.37426556  1
  Ba  Ba24  1  -0.00000000  0.42937966  0.75000000  1
  Ba  Ba25  1  0.50000000  0.07062034  0.25000000  1
  Ba  Ba26  1  0.00000000  0.57062034  0.25000000  1
  Ba  Ba27  1  0.50000000  0.92937966  0.75000000  1
  Ti  Ti28  1  0.00000000  0.92305875  0.75000000  1
  Ti  Ti29  1  0.50000000  0.57694125  0.25000000  1
  Ti  Ti30  1  -0.00000000  0.07694125  0.25000000  1
  Ti  Ti31  1  0.50000000  0.42305875  0.75000000  1
  N  N32  1  0.11697413  0.75658352  0.79030507  1
  N  N33  1  0.38302587  0.74341648  0.29030507  1
  N  N34  1  0.61697413  0.74341648  0.20969493  1
  N  N35  1  0.88302587  0.75658352  0.70969493  1
  N  N36  1  0.88302587  0.24341648  0.20969493  1
  N  N37  1  0.61697413  0.25658352  0.70969493  1
  N  N38  1  0.38302587  0.25658352  0.79030507  1
  N  N39  1  0.11697413  0.24341648  0.29030507  1
  N  N40  1  0.16279957  0.60199336  0.49827579  1
  N  N41  1  0.33720043  0.89800664  0.99827579  1
  N  N42  1  0.66279957  0.89800664  0.50172421  1
  N  N43  1  0.83720043  0.60199336  0.00172421  1
  N  N44  1  0.83720043  0.39800664  0.50172421  1
  N  N45  1  0.66279957  0.10199336  0.00172421  1
  N  N46  1  0.33720043  0.10199336  0.49827579  1
  N  N47  1  0.16279957  0.39800664  0.99827579  1
  N  N48  1  0.44830015  0.58037868  0.64945856  1
  N  N49  1  0.05169985  0.91962132  0.14945856  1
  N  N50  1  0.94830015  0.91962132  0.35054144  1
  N  N51  1  0.55169985  0.58037868  0.85054144  1
  N  N52  1  0.55169985  0.41962132  0.35054144  1
  N  N53  1  0.94830015  0.08037868  0.85054144  1
  N  N54  1  0.05169985  0.08037868  0.64945856  1
  N  N55  1  0.44830015  0.41962132  0.14945856  1
