# generated using pymatgen
data_Mg11(CN5)2
_symmetry_space_group_name_H-M   'P 1'
_cell_length_a   13.14130389
_cell_length_b   13.14130389
_cell_length_c   3.17554782
_cell_angle_alpha   90.00000000
_cell_angle_beta   90.00000000
_cell_angle_gamma   90.00000000
_symmetry_Int_Tables_number   1
_chemical_formula_structural   Mg11(CN5)2
_chemical_formula_sum   'Mg22 C4 N20'
_cell_volume   548.39763583
_cell_formula_units_Z   2
loop_
 _symmetry_equiv_pos_site_id
 _symmetry_equiv_pos_as_xyz
  1  'x, y, z'
loop_
 _atom_site_type_symbol
 _atom_site_label
 _atom_site_symmetry_multiplicity
 _atom_site_fract_x
 _atom_site_fract_y
 _atom_site_fract_z
 _atom_site_occupancy
  Mg  Mg0  1  0.50000000  0.50000000  0.50000000  1
  Mg  Mg1  1  -0.00000000  -0.00000000  0.00000000  1
  Mg  Mg2  1  0.98603694  0.79348350  0.50000000  1
  Mg  Mg3  1  0.01396306  0.20651650  0.50000000  1
  Mg  Mg4  1  0.51396306  0.29348350  0.00000000  1
  Mg  Mg5  1  0.48603694  0.70651650  0.00000000  1
  Mg  Mg6  1  0.79348350  0.98603694  0.50000000  1
  Mg  Mg7  1  0.20651650  0.01396306  0.50000000  1
  Mg  Mg8  1  0.29348350  0.51396306  0.00000000  1
  Mg  Mg9  1  0.70651650  0.48603694  -0.00000000  1
  Mg  Mg10  1  0.66082257  0.66082257  0.50000000  1
  Mg  Mg11  1  0.33917743  0.33917743  0.50000000  1
  Mg  Mg12  1  0.83917743  0.16082257  -0.00000000  1
  Mg  Mg13  1  0.16082257  0.83917743  -0.00000000  1
  Mg  Mg14  1  0.38502306  0.90396003  0.50000000  1
  Mg  Mg15  1  0.61497694  0.09603997  0.50000000  1
  Mg  Mg16  1  0.11497694  0.40396003  0.00000000  1
  Mg  Mg17  1  0.88502306  0.59603997  -0.00000000  1
  Mg  Mg18  1  0.90396003  0.38502306  0.50000000  1
  Mg  Mg19  1  0.09603997  0.61497694  0.50000000  1
  Mg  Mg20  1  0.40396003  0.11497694  -0.00000000  1
  Mg  Mg21  1  0.59603997  0.88502306  -0.00000000  1
  C  C22  1  0.30914120  0.69085880  0.50000000  1
  C  C23  1  0.69085880  0.30914120  0.50000000  1
  C  C24  1  0.19085880  0.19085880  0.00000000  1
  C  C25  1  0.80914120  0.80914120  0.00000000  1
  N  N26  1  0.08611210  0.91388790  0.50000000  1
  N  N27  1  0.91388790  0.08611210  0.50000000  1
  N  N28  1  0.41388790  0.41388790  -0.00000000  1
  N  N29  1  0.58611210  0.58611210  -0.00000000  1
  N  N30  1  0.48130320  0.18456088  0.50000000  1
  N  N31  1  0.51869680  0.81543912  0.50000000  1
  N  N32  1  0.01869680  0.68456088  -0.00000000  1
  N  N33  1  0.98130320  0.31543912  -0.00000000  1
  N  N34  1  0.18456088  0.48130320  0.50000000  1
  N  N35  1  0.81543912  0.51869680  0.50000000  1
  N  N36  1  0.68456088  0.01869680  -0.00000000  1
  N  N37  1  0.31543912  0.98130320  0.00000000  1
  N  N38  1  0.24300925  0.75699075  0.50000000  1
  N  N39  1  0.75699075  0.24300925  0.50000000  1
  N  N40  1  0.25699075  0.25699075  0.00000000  1
  N  N41  1  0.74300925  0.74300925  0.00000000  1
  N  N42  1  0.37574331  0.62425669  0.50000000  1
  N  N43  1  0.62425669  0.37574331  0.50000000  1
  N  N44  1  0.12425669  0.12425669  0.00000000  1
  N  N45  1  0.87574331  0.87574331  0.00000000  1
