# generated using pymatgen
data_Si2H2O3
_symmetry_space_group_name_H-M   'P 1'
_cell_length_a   13.32118067
_cell_length_b   9.24807195
_cell_length_c   13.32229882
_cell_angle_alpha   103.76401727
_cell_angle_beta   142.54816496
_cell_angle_gamma   93.41506760
_symmetry_Int_Tables_number   1
_chemical_formula_structural   Si2H2O3
_chemical_formula_sum   'Si20 H20 O30'
_cell_volume   879.43712197
_cell_formula_units_Z   10
loop_
 _symmetry_equiv_pos_site_id
 _symmetry_equiv_pos_as_xyz
  1  'x, y, z'
loop_
 _atom_site_type_symbol
 _atom_site_label
 _atom_site_symmetry_multiplicity
 _atom_site_fract_x
 _atom_site_fract_y
 _atom_site_fract_z
 _atom_site_occupancy
  Si  Si0  1  0.63565492  0.86129858  0.49319024  1
  Si  Si1  1  0.67092462  0.60254365  0.29452667  1
  Si  Si2  1  0.30750223  0.10010952  0.43220295  1
  Si  Si3  1  0.36507070  0.35653027  0.72422245  1
  Si  Si4  1  0.02959923  0.10585333  0.79682234  1
  Si  Si5  1  0.72849376  0.35341431  0.48067801  1
  Si  Si6  1  0.87113017  0.84775027  0.12198007  1
  Si  Si7  1  0.30516156  0.60266933  0.57624229  1
  Si  Si8  1  0.58190007  0.05357817  0.34054674  1
  Si  Si9  1  0.16738735  0.51278501  0.85536147  1
  Si  Si10  1  0.65440338  0.00690126  0.84232492  1
  Si  Si11  1  0.70990551  0.54696807  0.96725698  1
  Si  Si12  1  0.42551548  0.82916991  0.98313221  1
  Si  Si13  1  0.35341942  0.90739041  0.30996510  1
  Si  Si14  1  0.59677329  0.40483166  0.05383233  1
  Si  Si15  1  0.84570564  0.32273516  0.90051236  1
  Si  Si16  1  0.06918913  0.86673409  0.61627669  1
  Si  Si17  1  0.75104286  0.64457580  0.69057141  1
  Si  Si18  1  0.95003558  0.13805991  0.38902484  1
  Si  Si19  1  0.25054098  0.36513609  0.29967168  1
  H  H20  1  0.99108824  0.84425699  0.85096136  1
  H  H21  1  0.62655935  0.34152905  0.22635867  1
  H  H22  1  0.11534292  0.84047553  0.21280908  1
  H  H23  1  0.99271554  0.33965464  0.35292762  1
  H  H24  1  0.26388115  0.09737608  0.08521047  1
  H  H25  1  0.98163129  0.24282639  0.76502414  1
  H  H26  1  0.47329915  0.74001893  0.76172192  1
  H  H27  1  0.00695913  0.59246024  0.33058651  1
  H  H28  1  0.52364196  0.89046942  0.64695136  1
  H  H29  1  0.24663900  0.39881584  0.86629067  1
  H  H30  1  0.43451473  0.61977938  0.21006760  1
  H  H31  1  0.40900749  0.11666593  0.68588384  1
  H  H32  1  0.12084525  0.14416157  0.70192570  1
  H  H33  1  0.39665134  0.38308952  0.34893219  1
  H  H34  1  0.03803457  0.88224034  0.48761542  1
  H  H35  1  0.43663660  0.64448685  0.52335985  1
  H  H36  1  0.83883179  0.09447164  0.38523219  1
  H  H37  1  0.14886328  0.47843033  0.01141720  1
  H  H38  1  0.47218996  0.98188795  0.83724800  1
  H  H39  1  0.70965600  0.60102754  0.75686390  1
  O  O40  1  0.86860603  0.94086530  0.68600555  1
  O  O41  1  0.65320538  0.41854376  0.32072801  1
  O  O42  1  0.09661719  0.91496339  0.26313917  1
  O  O43  1  0.25170333  0.43715105  0.57203912  1
  O  O44  1  0.21576002  0.16318465  0.01700817  1
  O  O45  1  0.94894803  0.42105544  0.64716983  1
  O  O46  1  0.77061066  0.91487409  0.96843630  1
  O  O47  1  0.14149896  0.65851662  0.44627684  1
  O  O48  1  0.39106036  0.02567712  0.25406611  1
  O  O49  1  0.26188378  0.68738105  0.90616310  1
  O  O50  1  0.77815804  0.17804691  0.91798719  1
  O  O51  1  0.76993202  0.51974295  0.13137495  1
  O  O52  1  0.26753470  0.88028719  0.79898346  1
  O  O53  1  0.96938397  0.76166900  0.87230604  1
  O  O54  1  0.88717672  0.25525758  0.28842853  1
  O  O55  1  0.08115555  0.37736694  0.11415832  1
  O  O56  1  0.62223246  0.73661866  0.56517902  1
  O  O57  1  0.89135751  0.72547034  0.50570426  1
  O  O58  1  0.21997591  0.22387713  0.33613098  1
  O  O59  1  0.16723946  0.23077570  0.61177629  1
  O  O60  1  0.57431651  0.68467484  0.32575492  1
  O  O61  1  0.35585234  0.18012813  0.60928646  1
  O  O62  1  0.06810317  0.05322133  0.69541093  1
  O  O63  1  0.69527968  0.47352890  0.55516026  1
  O  O64  1  0.91635172  0.96767085  0.27515851  1
  O  O65  1  0.35523723  0.55127716  0.48621153  1
  O  O66  1  0.50414720  0.99263925  0.15390149  1
  O  O67  1  0.22412242  0.54690575  0.02816460  1
  O  O68  1  0.52087879  0.04640676  0.82558065  1
  O  O69  1  0.83159026  0.48322823  0.97946698  1
