# generated using pymatgen
data_Al2O3
_symmetry_space_group_name_H-M   'P 1'
_cell_length_a   10.30426372
_cell_length_b   10.47790627
_cell_length_c   9.93290440
_cell_angle_alpha   91.04740973
_cell_angle_beta   89.18300066
_cell_angle_gamma   88.44020898
_symmetry_Int_Tables_number   1
_chemical_formula_structural   Al2O3
_chemical_formula_sum   'Al40 O60'
_cell_volume   1071.73364922
_cell_formula_units_Z   20
loop_
 _symmetry_equiv_pos_site_id
 _symmetry_equiv_pos_as_xyz
  1  'x, y, z'
loop_
 _atom_site_type_symbol
 _atom_site_label
 _atom_site_symmetry_multiplicity
 _atom_site_fract_x
 _atom_site_fract_y
 _atom_site_fract_z
 _atom_site_occupancy
  Al  Al0  1  0.00146122  0.14671759  0.57672288  1
  Al  Al1  1  0.83242753  0.66088103  0.43900013  1
  Al  Al2  1  0.24873927  0.38372982  0.12968647  1
  Al  Al3  1  0.19858760  0.47164318  0.89291795  1
  Al  Al4  1  0.55766242  0.69378601  0.52259464  1
  Al  Al5  1  0.86257557  0.28721283  0.10806888  1
  Al  Al6  1  0.35662648  0.97808978  0.82474106  1
  Al  Al7  1  0.24510555  0.66940804  0.16527863  1
  Al  Al8  1  0.05046797  0.88616733  0.79942085  1
  Al  Al9  1  0.06514852  0.86808190  0.24087415  1
  Al  Al10  1  0.93418453  0.39202419  0.75830667  1
  Al  Al11  1  0.38561952  0.83224771  0.36923966  1
  Al  Al12  1  0.95241000  0.59114480  0.15411910  1
  Al  Al13  1  0.30264759  0.51440888  0.48484699  1
  Al  Al14  1  0.79310906  0.15291929  0.34566693  1
  Al  Al15  1  0.52667307  0.30100416  0.55800351  1
  Al  Al16  1  0.29862421  0.75205507  0.67912068  1
  Al  Al17  1  0.57823119  0.01311519  0.05364443  1
  Al  Al18  1  0.49139386  0.44784704  0.82190448  1
  Al  Al19  1  0.54481601  0.29860371  0.06196045  1
  Al  Al20  1  0.47737377  0.57296477  0.20651981  1
  Al  Al21  1  0.15185848  0.92925934  0.54312188  1
  Al  Al22  1  0.15155689  0.19261484  0.32886798  1
  Al  Al23  1  0.62940311  0.88698376  0.32394532  1
  Al  Al24  1  0.74204137  0.50690775  0.01063637  1
  Al  Al25  1  0.03357424  0.60567600  0.64783943  1
  Al  Al26  1  0.73531605  0.82224887  0.76361932  1
  Al  Al27  1  0.29670352  0.18908862  0.59848582  1
  Al  Al28  1  0.98605124  0.05666376  0.07333931  1
  Al  Al29  1  0.58913011  0.02417207  0.57758796  1
  Al  Al30  1  0.88030201  0.90816831  0.52007875  1
  Al  Al31  1  0.48741357  0.14723543  0.32667033  1
  Al  Al32  1  0.11730821  0.18482187  0.87531248  1
  Al  Al33  1  0.30712648  0.01037070  0.17165244  1
  Al  Al34  1  0.59881273  0.15361762  0.80770395  1
  Al  Al35  1  0.72494403  0.52172793  0.66642432  1
  Al  Al36  1  0.02228569  0.42886662  0.40584608  1
  Al  Al37  1  0.50282426  0.71286427  0.93509348  1
  Al  Al38  1  0.79922206  0.82733085  0.03173253  1
  Al  Al39  1  0.68423840  0.43161705  0.33713838  1
  O  O40  1  0.97707591  0.20854575  0.99143340  1
  O  O41  1  0.68104013  0.07596118  0.93237434  1
  O  O42  1  0.44878020  0.96754859  0.28188707  1
  O  O43  1  0.91464762  0.72094723  0.58141713  1
  O  O44  1  0.64453576  0.81176949  0.92021601  1
  O  O45  1  0.12708903  0.72627107  0.73060730  1
  O  O46  1  0.70810071  0.33629283  0.04415117  1
  O  O47  1  0.13486261  0.35786876  0.26308693  1
  O  O48  1  0.25284161  0.84553449  0.22664884  1
  O  O49  1  0.73808905  0.93666473  0.63592301  1
  O  O50  1  0.34292122  0.35258025  0.55071351  1
  O  O51  1  0.26320749  0.15540996  0.76754381  1
  O  O52  1  0.66248165  0.68676602  0.67610721  1
  O  O53  1  0.00470482  0.23657039  0.73200451  1
  O  O54  1  0.87908344  0.08266619  0.47562060  1
  O  O55  1  0.09478320  0.00903183  0.92280679  1
  O  O56  1  0.42238149  0.40574286  0.13114566  1
  O  O57  1  0.33726301  0.51223105  0.80957125  1
  O  O58  1  0.03389608  0.88664533  0.41397232  1
  O  O59  1  0.50842212  0.28755053  0.88392024  1
  O  O60  1  0.17981566  0.09707827  0.50073858  1
  O  O61  1  0.06152208  0.49521275  0.79185856  1
  O  O62  1  0.40121533  0.62856740  0.57514430  1
  O  O63  1  0.81467334  0.32266604  0.32069405  1
  O  O64  1  0.13056059  0.52843210  0.51077105  1
  O  O65  1  0.67156174  0.90155731  0.14978928  1
  O  O66  1  0.19586104  0.53721526  0.05977164  1
  O  O67  1  0.00506971  0.97335231  0.64814097  1
  O  O68  1  0.07397637  0.70159954  0.19158337  1
  O  O69  1  0.12108438  0.05357144  0.20306569  1
  O  O70  1  0.89462545  0.47188215  0.59924913  1
  O  O71  1  0.94056227  0.89827604  0.11602841  1
  O  O72  1  0.44440335  0.13609231  0.51211612  1
  O  O73  1  0.32015961  0.56769968  0.30717846  1
  O  O74  1  0.57685580  0.43353547  0.66309141  1
  O  O75  1  0.03750537  0.26941164  0.45742139  1
  O  O76  1  0.81920785  0.66227090  0.06602851  1
  O  O77  1  0.91337231  0.44610975  0.07940097  1
  O  O78  1  0.57952377  0.55516407  0.92763921  1
  O  O79  1  0.23433087  0.92299433  0.71181264  1
  O  O80  1  0.77805238  0.81463579  0.38977242  1
  O  O81  1  0.64238126  0.52281406  0.19800090  1
  O  O82  1  0.88588831  0.83683303  0.85722345  1
  O  O83  1  0.56097279  0.32154615  0.38443256  1
  O  O84  1  0.20324554  0.31333261  0.96786590  1
  O  O85  1  0.49993299  0.02668222  0.74316392  1
  O  O86  1  0.31686508  0.17132381  0.26332797  1
  O  O87  1  0.64840058  0.06199274  0.38519305  1
  O  O88  1  0.86058443  0.12980705  0.18432401  1
  O  O89  1  0.68897067  0.56157454  0.46733936  1
  O  O90  1  0.51724332  0.71482356  0.33136008  1
  O  O91  1  0.92384835  0.55539649  0.33168656  1
  O  O92  1  0.40976437  0.68433122  0.08720162  1
  O  O93  1  0.64320050  0.19216613  0.64000630  1
  O  O94  1  0.39501698  0.99837572  0.00872324  1
  O  O95  1  0.53106143  0.87038322  0.50105869  1
  O  O96  1  0.27164292  0.81358342  0.49773157  1
  O  O97  1  0.79250202  0.46735388  0.82774373  1
  O  O98  1  0.54872674  0.15760420  0.15513052  1
  O  O99  1  0.39893889  0.79114189  0.82024285  1
