# generated using pymatgen
data_Ba(C4N3)2
_symmetry_space_group_name_H-M   'P 1'
_cell_length_a   14.78061340
_cell_length_b   14.77580718
_cell_length_c   4.48720489
_cell_angle_alpha   90.00726316
_cell_angle_beta   89.99637034
_cell_angle_gamma   119.98924437
_symmetry_Int_Tables_number   1
_chemical_formula_structural   Ba(C4N3)2
_chemical_formula_sum   'Ba3 C24 N18'
_cell_volume   848.78414815
_cell_formula_units_Z   3
loop_
 _symmetry_equiv_pos_site_id
 _symmetry_equiv_pos_as_xyz
  1  'x, y, z'
loop_
 _atom_site_type_symbol
 _atom_site_label
 _atom_site_symmetry_multiplicity
 _atom_site_fract_x
 _atom_site_fract_y
 _atom_site_fract_z
 _atom_site_occupancy
  Ba  Ba0  1  -0.00000000  0.00000007  0.41972042  1
  Ba  Ba1  1  0.33334747  0.66664355  0.65615152  1
  Ba  Ba2  1  0.66665253  0.33329608  0.65615152  1
  C  C3  1  -0.00000000  0.62860953  0.22581357  1
  C  C4  1  0.62859570  0.99999208  0.22583430  1
  C  C5  1  0.37140430  0.37139538  0.22583430  1
  C  C6  1  0.00000000  0.72072073  0.31087420  1
  C  C7  1  0.72066968  0.99998211  0.31085151  1
  C  C8  1  0.27933032  0.27931243  0.31085151  1
  C  C9  1  0.09547353  0.63124836  0.18417682  1
  C  C10  1  0.53577284  0.90450580  0.18418841  1
  C  C11  1  0.36875109  0.46424888  0.18417011  1
  C  C12  1  0.90452647  0.53577383  0.18417682  1
  C  C13  1  0.63124891  0.09549679  0.18417011  1
  C  C14  1  0.46422716  0.36873196  0.18418841  1
  C  C15  1  0.70937146  0.70938471  0.74549401  1
  C  C16  1  -0.00000000  0.29063756  0.74547775  1
  C  C17  1  0.29062854  0.00001325  0.74549401  1
  C  C18  1  0.79794513  0.79796523  0.85107777  1
  C  C19  1  1.00000000  0.20204483  0.85107709  1
  C  C20  1  0.20205487  0.00002010  0.85107777  1
  C  C21  1  0.61721328  0.71173151  0.69075886  1
  C  C22  1  0.09450090  0.38279265  0.69074182  1
  C  C23  1  0.28827784  0.90547455  0.69073939  1
  C  C24  1  0.38278672  0.09451823  0.69075886  1
  C  C25  1  0.71172216  0.61719670  0.69073939  1
  C  C26  1  0.90549910  0.28829275  0.69074182  1
  N  N27  1  1.00000000  0.79699475  0.38302270  1
  N  N28  1  0.79692407  0.99999395  0.38295664  1
  N  N29  1  0.20307593  0.20306989  0.38295664  1
  N  N30  1  0.17646185  0.63550992  0.15089453  1
  N  N31  1  0.45904427  0.82351904  0.15087572  1
  N  N32  1  0.36448523  0.54100395  0.15085773  1
  N  N33  1  0.82353815  0.45904807  0.15089453  1
  N  N34  1  0.63551477  0.17651772  0.15085773  1
  N  N35  1  0.54095573  0.36447377  0.15087572  1
  N  N36  1  0.87323729  0.87323658  0.93525402  1
  N  N37  1  0.00000000  0.12674317  0.93526523  1
  N  N38  1  0.12676271  0.99999929  0.93525402  1
  N  N39  1  0.53951835  0.71205114  0.64354124  1
  N  N40  1  0.17254271  0.46045848  0.64356769  1
  N  N41  1  0.28792717  0.82741412  0.64352243  1
  N  N42  1  0.46048165  0.17253279  0.64354124  1
  N  N43  1  0.71207283  0.53948695  0.64352243  1
  N  N44  1  0.82745729  0.28791678  0.64356769  1
