# generated using pymatgen
data_Mg(C4N3)2
_symmetry_space_group_name_H-M   'P 1'
_cell_length_a   5.38970933
_cell_length_b   7.56969737
_cell_length_c   10.64035135
_cell_angle_alpha   90.00000000
_cell_angle_beta   90.00000000
_cell_angle_gamma   90.00000000
_symmetry_Int_Tables_number   1
_chemical_formula_structural   Mg(C4N3)2
_chemical_formula_sum   'Mg2 C16 N12'
_cell_volume   434.11003981
_cell_formula_units_Z   2
loop_
 _symmetry_equiv_pos_site_id
 _symmetry_equiv_pos_as_xyz
  1  'x, y, z'
loop_
 _atom_site_type_symbol
 _atom_site_label
 _atom_site_symmetry_multiplicity
 _atom_site_fract_x
 _atom_site_fract_y
 _atom_site_fract_z
 _atom_site_occupancy
  Mg  Mg0  1  0.00000000  0.50000000  0.50000000  1
  Mg  Mg1  1  0.00000000  0.00000000  0.00000000  1
  C  C2  1  0.39216651  0.00000000  0.74991905  1
  C  C3  1  0.39216651  0.50000000  0.75008095  1
  C  C4  1  0.60783349  0.00000000  0.25008095  1
  C  C5  1  0.60783349  0.50000000  0.24991905  1
  C  C6  1  0.58318371  0.00000000  0.65978168  1
  C  C7  1  0.58318371  0.50000000  0.84021832  1
  C  C8  1  0.41681629  -0.00000000  0.34021832  1
  C  C9  1  0.41681629  0.50000000  0.15978168  1
  C  C10  1  0.68951338  0.15776930  0.61671128  1
  C  C11  1  0.68951338  0.34223070  0.88328872  1
  C  C12  1  0.31048662  0.15776930  0.38328872  1
  C  C13  1  0.68951338  0.65776930  0.88328872  1
  C  C14  1  0.31048662  0.84223070  0.38328872  1
  C  C15  1  0.31048662  0.65776930  0.11671128  1
  C  C16  1  0.68951338  0.84223070  0.61671128  1
  C  C17  1  0.31048662  0.34223070  0.11671128  1
  N  N18  1  0.78282312  0.28659797  0.57858276  1
  N  N19  1  0.78282312  0.21340203  0.92141724  1
  N  N20  1  0.21717688  0.28659797  0.42141724  1
  N  N21  1  0.78282312  0.78659797  0.92141724  1
  N  N22  1  0.21717688  0.71340203  0.42141724  1
  N  N23  1  0.21717688  0.78659797  0.07858276  1
  N  N24  1  0.78282312  0.71340203  0.57858276  1
  N  N25  1  0.21717688  0.21340203  0.07858276  1
  N  N26  1  0.23617712  -0.00000000  0.82656034  1
  N  N27  1  0.23617712  0.50000000  0.67343966  1
  N  N28  1  0.76382288  -0.00000000  0.17343966  1
  N  N29  1  0.76382288  0.50000000  0.32656034  1
