# generated using pymatgen
data_MgO
_symmetry_space_group_name_H-M   'P 1'
_cell_length_a   9.69096352
_cell_length_b   10.04789594
_cell_length_c   10.20246472
_cell_angle_alpha   99.04009995
_cell_angle_beta   87.40650196
_cell_angle_gamma   89.30835824
_symmetry_Int_Tables_number   1
_chemical_formula_structural   MgO
_chemical_formula_sum   'Mg40 O40'
_cell_volume   979.92242846
_cell_formula_units_Z   40
loop_
 _symmetry_equiv_pos_site_id
 _symmetry_equiv_pos_as_xyz
  1  'x, y, z'
loop_
 _atom_site_type_symbol
 _atom_site_label
 _atom_site_symmetry_multiplicity
 _atom_site_fract_x
 _atom_site_fract_y
 _atom_site_fract_z
 _atom_site_occupancy
  Mg  Mg0  1  0.42274645  0.81825084  0.33968736  1
  Mg  Mg1  1  0.14129298  0.58181720  0.73196295  1
  Mg  Mg2  1  0.74815883  0.39047966  0.07764709  1
  Mg  Mg3  1  0.55606943  0.95802325  0.65030252  1
  Mg  Mg4  1  0.31433188  0.39373800  0.79681991  1
  Mg  Mg5  1  0.16475563  0.50419510  0.13264393  1
  Mg  Mg6  1  0.60903027  0.33055714  0.76936960  1
  Mg  Mg7  1  0.67068500  0.56175470  0.68311381  1
  Mg  Mg8  1  0.89566620  0.98659676  0.07153053  1
  Mg  Mg9  1  0.02231228  0.12865089  0.37780260  1
  Mg  Mg10  1  0.00392615  0.26241903  0.04032405  1
  Mg  Mg11  1  0.14476300  0.22995030  0.62192877  1
  Mg  Mg12  1  0.01612227  0.67466078  0.51790948  1
  Mg  Mg13  1  0.30470419  0.75295752  0.04336833  1
  Mg  Mg14  1  0.87817130  0.57016919  0.93126456  1
  Mg  Mg15  1  0.95556347  0.68764990  0.17914167  1
  Mg  Mg16  1  0.69182427  0.08558602  0.93487912  1
  Mg  Mg17  1  0.68065423  0.78804905  0.09081791  1
  Mg  Mg18  1  0.42622868  0.74960756  0.79603370  1
  Mg  Mg19  1  0.16134204  0.86789726  0.28495314  1
  Mg  Mg20  1  0.82030283  0.33878032  0.44953159  1
  Mg  Mg21  1  0.72182386  0.95393497  0.36232034  1
  Mg  Mg22  1  0.38115290  0.10753479  0.82759376  1
  Mg  Mg23  1  0.50724998  0.51937824  0.97603343  1
  Mg  Mg24  1  0.80363330  0.57498901  0.34283116  1
  Mg  Mg25  1  0.47142936  0.04427094  0.16789764  1
  Mg  Mg26  1  0.31032207  0.61093519  0.43263981  1
  Mg  Mg27  1  0.21564973  0.91606387  0.59338274  1
  Mg  Mg28  1  0.36009286  0.31237784  0.12116721  1
  Mg  Mg29  1  0.39595892  0.13015300  0.46785012  1
  Mg  Mg30  1  0.69141314  0.19581059  0.24548645  1
  Mg  Mg31  1  0.51740441  0.44509031  0.30035661  1
  Mg  Mg32  1  0.93398480  0.38505025  0.69384464  1
  Mg  Mg33  1  0.12478272  0.41702837  0.37020278  1
  Mg  Mg34  1  0.98039202  0.03263636  0.78797746  1
  Mg  Mg35  1  0.02729944  0.79829083  0.87163664  1
  Mg  Mg36  1  0.64742436  0.75004629  0.49239061  1
  Mg  Mg37  1  0.81342048  0.81120721  0.69707014  1
  Mg  Mg38  1  0.18952734  0.07306034  0.10791279  1
  Mg  Mg39  1  0.78515655  0.12983663  0.60275192  1
  O  O40  1  0.67279697  0.98915193  0.15281524  1
  O  O41  1  0.80764186  0.19699380  0.06614636  1
  O  O42  1  0.93571366  0.61984275  0.76218390  1
  O  O43  1  0.80267616  0.13825570  0.39738463  1
  O  O44  1  0.48568552  0.49597074  0.76432672  1
  O  O45  1  0.60378110  0.75984088  0.69500390  1
  O  O46  1  0.36700978  0.92734687  0.72348910  1
  O  O47  1  0.75453531  0.75080020  0.27872870  1
  O  O48  1  0.50667633  0.64383445  0.39435077  1
  O  O49  1  0.03445384  0.85255576  0.67337540  1
  O  O50  1  0.00435506  0.57711801  0.32698805  1
  O  O51  1  0.94882337  0.46745662  0.06529793  1
  O  O52  1  0.34888010  0.21546443  0.67709059  1
  O  O53  1  0.12144387  0.39707269  0.75914977  1
  O  O54  1  0.33616879  0.91185042  0.19487114  1
  O  O55  1  0.23928530  0.79040112  0.42867218  1
  O  O56  1  0.38279613  0.11832237  0.02353277  1
  O  O57  1  0.71495052  0.46028480  0.90220722  1
  O  O58  1  0.17090165  0.55426642  0.54491681  1
  O  O59  1  0.31016499  0.43474288  0.98984259  1
  O  O60  1  0.15222439  0.70230047  0.14789188  1
  O  O61  1  0.60373050  0.13313356  0.77746483  1
  O  O62  1  0.51928924  0.95920167  0.44947355  1
  O  O63  1  0.88377322  0.76151559  0.02649564  1
  O  O64  1  0.50718748  0.72164699  0.00188439  1
  O  O65  1  0.48502377  0.20749324  0.30878876  1
  O  O66  1  0.95234258  0.18011396  0.69768446  1
  O  O67  1  0.75382113  0.93094977  0.56100587  1
  O  O68  1  0.54931758  0.39587631  0.10774409  1
  O  O69  1  0.19010936  0.07240538  0.47652720  1
  O  O70  1  0.80165329  0.63232812  0.53551571  1
  O  O71  1  0.03062726  0.98971371  0.21960306  1
  O  O72  1  0.13819328  0.27034994  0.18106599  1
  O  O73  1  0.82475592  0.94176622  0.86826472  1
  O  O74  1  0.72612365  0.39808760  0.30482178  1
  O  O75  1  0.30645341  0.46270147  0.28374653  1
  O  O76  1  0.22719075  0.72197825  0.86118177  1
  O  O77  1  0.74057022  0.35767811  0.62727655  1
  O  O78  1  0.06668312  0.05765917  0.95856967  1
  O  O79  1  0.01603491  0.31390611  0.48462189  1
