# generated using pymatgen
data_Ca3YN3
_symmetry_space_group_name_H-M   'P 1'
_cell_length_a   7.84864570
_cell_length_b   7.36086071
_cell_length_c   4.76189487
_cell_angle_alpha   90.00000000
_cell_angle_beta   90.00000000
_cell_angle_gamma   115.33799978
_symmetry_Int_Tables_number   1
_chemical_formula_structural   Ca3YN3
_chemical_formula_sum   'Ca6 Y2 N6'
_cell_volume   248.64226002
_cell_formula_units_Z   2
loop_
 _symmetry_equiv_pos_site_id
 _symmetry_equiv_pos_as_xyz
  1  'x, y, z'
loop_
 _atom_site_type_symbol
 _atom_site_label
 _atom_site_symmetry_multiplicity
 _atom_site_fract_x
 _atom_site_fract_y
 _atom_site_fract_z
 _atom_site_occupancy
  Ca  Ca0  1  0.97667948  0.64338557  0.25000000  1
  Ca  Ca1  1  0.68266897  0.07278494  0.25000000  1
  Ca  Ca2  1  0.20462077  0.13942507  0.25000000  1
  Ca  Ca3  1  0.02332052  0.35661443  0.75000000  1
  Ca  Ca4  1  0.31733103  0.92721506  0.75000000  1
  Ca  Ca5  1  0.79537923  0.86057493  0.75000000  1
  Y  Y6  1  0.63575413  0.41611724  0.75000000  1
  Y  Y7  1  0.36424587  0.58388276  0.25000000  1
  N  N8  1  0.96273378  0.66854388  0.75000000  1
  N  N9  1  0.67499308  0.13900603  0.75000000  1
  N  N10  1  0.31687626  0.29544922  0.75000000  1
  N  N11  1  0.03726622  0.33145612  0.25000000  1
  N  N12  1  0.32500692  0.86099397  0.25000000  1
  N  N13  1  0.68312374  0.70455078  0.25000000  1
