# generated using pymatgen
data_AlBiN2
_symmetry_space_group_name_H-M   'P 1'
_cell_length_a   5.70953289
_cell_length_b   10.55839983
_cell_length_c   15.52370558
_cell_angle_alpha   90.00000000
_cell_angle_beta   90.00000000
_cell_angle_gamma   90.00000000
_symmetry_Int_Tables_number   1
_chemical_formula_structural   AlBiN2
_chemical_formula_sum   'Al16 Bi16 N32'
_cell_volume   935.82378804
_cell_formula_units_Z   16
loop_
 _symmetry_equiv_pos_site_id
 _symmetry_equiv_pos_as_xyz
  1  'x, y, z'
loop_
 _atom_site_type_symbol
 _atom_site_label
 _atom_site_symmetry_multiplicity
 _atom_site_fract_x
 _atom_site_fract_y
 _atom_site_fract_z
 _atom_site_occupancy
  Al  Al0  1  0.76563070  0.00742493  0.18619008  1
  Al  Al1  1  0.26563070  0.49257507  0.81380992  1
  Al  Al2  1  0.23436930  0.50742493  0.31380992  1
  Al  Al3  1  0.73436930  0.99257507  0.68619008  1
  Al  Al4  1  0.23436930  0.99257507  0.81380992  1
  Al  Al5  1  0.73436930  0.50742493  0.18619008  1
  Al  Al6  1  0.76563070  0.49257507  0.68619008  1
  Al  Al7  1  0.26563070  0.00742493  0.31380992  1
  Al  Al8  1  0.78645139  0.27109747  0.06304470  1
  Al  Al9  1  0.28645139  0.22890253  0.93695530  1
  Al  Al10  1  0.21354861  0.77109747  0.43695530  1
  Al  Al11  1  0.71354861  0.72890253  0.56304470  1
  Al  Al12  1  0.21354861  0.72890253  0.93695530  1
  Al  Al13  1  0.71354861  0.77109747  0.06304470  1
  Al  Al14  1  0.78645139  0.22890253  0.56304470  1
  Al  Al15  1  0.28645139  0.27109747  0.43695530  1
  Bi  Bi16  1  0.75184107  0.99539035  0.44137089  1
  Bi  Bi17  1  0.25184107  0.50460965  0.55862911  1
  Bi  Bi18  1  0.24815893  0.49539035  0.05862911  1
  Bi  Bi19  1  0.74815893  0.00460965  0.94137089  1
  Bi  Bi20  1  0.24815893  0.00460965  0.55862911  1
  Bi  Bi21  1  0.74815893  0.49539035  0.44137089  1
  Bi  Bi22  1  0.75184107  0.50460965  0.94137089  1
  Bi  Bi23  1  0.25184107  0.99539035  0.05862911  1
  Bi  Bi24  1  0.85085366  0.27024726  0.30156902  1
  Bi  Bi25  1  0.35085366  0.22975274  0.69843098  1
  Bi  Bi26  1  0.14914634  0.77024726  0.19843098  1
  Bi  Bi27  1  0.64914634  0.72975274  0.80156902  1
  Bi  Bi28  1  0.14914634  0.72975274  0.69843098  1
  Bi  Bi29  1  0.64914634  0.77024726  0.30156902  1
  Bi  Bi30  1  0.85085366  0.22975274  0.80156902  1
  Bi  Bi31  1  0.35085366  0.27024726  0.19843098  1
  N  N32  1  0.51107933  0.43847164  0.26398450  1
  N  N33  1  0.01107933  0.06152836  0.73601550  1
  N  N34  1  0.48892067  0.93847164  0.23601550  1
  N  N35  1  0.98892067  0.56152836  0.76398450  1
  N  N36  1  0.48892067  0.56152836  0.73601550  1
  N  N37  1  0.98892067  0.93847164  0.26398450  1
  N  N38  1  0.51107933  0.06152836  0.76398450  1
  N  N39  1  0.01107933  0.43847164  0.23601550  1
  N  N40  1  0.58849891  0.31352791  0.48342509  1
  N  N41  1  0.08849891  0.18647209  0.51657491  1
  N  N42  1  0.41150109  0.81352791  0.01657491  1
  N  N43  1  0.91150109  0.68647209  0.98342509  1
  N  N44  1  0.41150109  0.68647209  0.51657491  1
  N  N45  1  0.91150109  0.81352791  0.48342509  1
  N  N46  1  0.58849891  0.18647209  0.98342509  1
  N  N47  1  0.08849891  0.31352791  0.01657491  1
  N  N48  1  0.64599662  0.43640371  0.07631745  1
  N  N49  1  0.14599662  0.06359629  0.92368255  1
  N  N50  1  0.35400338  0.93640371  0.42368255  1
  N  N51  1  0.85400338  0.56359629  0.57631745  1
  N  N52  1  0.35400338  0.56359629  0.92368255  1
  N  N53  1  0.85400338  0.93640371  0.07631745  1
  N  N54  1  0.64599662  0.06359629  0.57631745  1
  N  N55  1  0.14599662  0.43640371  0.42368255  1
  N  N56  1  0.75627024  0.18552804  0.17275248  1
  N  N57  1  0.25627024  0.31447196  0.82724752  1
  N  N58  1  0.24372976  0.68552804  0.32724752  1
  N  N59  1  0.74372976  0.81447196  0.67275248  1
  N  N60  1  0.24372976  0.81447196  0.82724752  1
  N  N61  1  0.74372976  0.68552804  0.17275248  1
  N  N62  1  0.75627024  0.31447196  0.67275248  1
  N  N63  1  0.25627024  0.18552804  0.32724752  1
