# generated using pymatgen
data_Ba4CN4
_symmetry_space_group_name_H-M   'P 1'
_cell_length_a   13.19043015
_cell_length_b   4.05985916
_cell_length_c   15.62327944
_cell_angle_alpha   90.00000000
_cell_angle_beta   90.00000000
_cell_angle_gamma   90.00000000
_symmetry_Int_Tables_number   1
_chemical_formula_structural   Ba4CN4
_chemical_formula_sum   'Ba16 C4 N16'
_cell_volume   836.64674725
_cell_formula_units_Z   4
loop_
 _symmetry_equiv_pos_site_id
 _symmetry_equiv_pos_as_xyz
  1  'x, y, z'
loop_
 _atom_site_type_symbol
 _atom_site_label
 _atom_site_symmetry_multiplicity
 _atom_site_fract_x
 _atom_site_fract_y
 _atom_site_fract_z
 _atom_site_occupancy
  Ba  Ba0  1  0.59890633  0.25000000  0.90408074  1
  Ba  Ba1  1  0.09890633  0.25000000  0.59591926  1
  Ba  Ba2  1  0.40109367  0.75000000  0.09591926  1
  Ba  Ba3  1  0.90109367  0.75000000  0.40408074  1
  Ba  Ba4  1  0.64022662  0.25000000  0.45214288  1
  Ba  Ba5  1  0.14022662  0.25000000  0.04785712  1
  Ba  Ba6  1  0.35977338  0.75000000  0.54785712  1
  Ba  Ba7  1  0.85977338  0.75000000  0.95214288  1
  Ba  Ba8  1  0.82333334  0.25000000  0.74573121  1
  Ba  Ba9  1  0.32333334  0.25000000  0.75426879  1
  Ba  Ba10  1  0.17666666  0.75000000  0.25426879  1
  Ba  Ba11  1  0.67666666  0.75000000  0.24573121  1
  Ba  Ba12  1  0.91467886  0.25000000  0.18022750  1
  Ba  Ba13  1  0.41467886  0.25000000  0.31977250  1
  Ba  Ba14  1  0.08532114  0.75000000  0.81977250  1
  Ba  Ba15  1  0.58532114  0.75000000  0.68022750  1
  C  C16  1  0.65816506  0.25000000  0.08823125  1
  C  C17  1  0.15816506  0.25000000  0.41176875  1
  C  C18  1  0.34183494  0.75000000  0.91176875  1
  C  C19  1  0.84183494  0.75000000  0.58823125  1
  N  N20  1  0.56928320  0.25000000  0.11493229  1
  N  N21  1  0.06928320  0.25000000  0.38506771  1
  N  N22  1  0.43071680  0.75000000  0.88506771  1
  N  N23  1  0.93071680  0.75000000  0.61493229  1
  N  N24  1  0.74615997  0.25000000  0.05920202  1
  N  N25  1  0.24615997  0.25000000  0.44079798  1
  N  N26  1  0.25384003  0.75000000  0.94079798  1
  N  N27  1  0.75384003  0.75000000  0.55920202  1
  N  N28  1  0.79374878  0.25000000  0.32986782  1
  N  N29  1  0.29374878  0.25000000  0.17013218  1
  N  N30  1  0.20625122  0.75000000  0.67013218  1
  N  N31  1  0.70625122  0.75000000  0.82986782  1
  N  N32  1  0.96190312  0.25000000  0.85932791  1
  N  N33  1  0.46190312  0.25000000  0.64067209  1
  N  N34  1  0.03809688  0.75000000  0.14067209  1
  N  N35  1  0.53809688  0.75000000  0.35932791  1
