# generated using pymatgen
data_VSi7N10
_symmetry_space_group_name_H-M   'P 1'
_cell_length_a   6.74115502
_cell_length_b   6.90182497
_cell_length_c   9.71967139
_cell_angle_alpha   90.00000000
_cell_angle_beta   105.42565891
_cell_angle_gamma   90.00000000
_symmetry_Int_Tables_number   1
_chemical_formula_structural   VSi7N10
_chemical_formula_sum   'V2 Si14 N20'
_cell_volume   435.92947228
_cell_formula_units_Z   2
loop_
 _symmetry_equiv_pos_site_id
 _symmetry_equiv_pos_as_xyz
  1  'x, y, z'
loop_
 _atom_site_type_symbol
 _atom_site_label
 _atom_site_symmetry_multiplicity
 _atom_site_fract_x
 _atom_site_fract_y
 _atom_site_fract_z
 _atom_site_occupancy
  V  V0  1  0.99666937  0.91771532  0.70170377  1
  V  V1  1  0.99666937  0.08228468  0.20170377  1
  Si  Si2  1  0.53875339  0.97911576  0.82175233  1
  Si  Si3  1  0.53875339  0.02088424  0.32175233  1
  Si  Si4  1  0.34998232  0.02217813  0.01801352  1
  Si  Si5  1  0.34998232  0.97782187  0.51801352  1
  Si  Si6  1  0.11228184  0.39849958  0.07236268  1
  Si  Si7  1  0.11228184  0.60150042  0.57236268  1
  Si  Si8  1  0.65976267  0.36027278  0.99034377  1
  Si  Si9  1  0.65976267  0.63972722  0.49034377  1
  Si  Si10  1  0.84348345  0.61856159  0.81018519  1
  Si  Si11  1  0.84348345  0.38143841  0.31018519  1
  Si  Si12  1  0.29726677  0.61816270  0.88074426  1
  Si  Si13  1  0.29726677  0.38183730  0.38074426  1
  Si  Si14  1  0.48455263  0.36734563  0.68532170  1
  Si  Si15  1  0.48455263  0.63265437  0.18532170  1
  N  N16  1  0.74337200  0.84286452  0.81406813  1
  N  N17  1  0.74337200  0.15713548  0.31406813  1
  N  N18  1  0.55582874  0.13289265  0.96857592  1
  N  N19  1  0.55582874  0.86710735  0.46857592  1
  N  N20  1  0.30743180  0.87076387  0.86051806  1
  N  N21  1  0.30743180  0.12923613  0.36051806  1
  N  N22  1  0.15621656  0.16072492  0.04219053  1
  N  N23  1  0.15621656  0.83927508  0.54219053  1
  N  N24  1  0.28788877  0.50352894  0.72201033  1
  N  N25  1  0.28788877  0.49647106  0.22201033  1
  N  N26  1  0.44599334  0.12089936  0.66874116  1
  N  N27  1  0.44599334  0.87910064  0.16874116  1
  N  N28  1  0.88578119  0.36983981  0.13232088  1
  N  N29  1  0.88578119  0.63016019  0.63232088  1
  N  N30  1  0.07701425  0.56826293  0.93453101  1
  N  N31  1  0.07701425  0.43173707  0.43453101  1
  N  N32  1  0.70040879  0.41499344  0.82446379  1
  N  N33  1  0.70040879  0.58500656  0.32446379  1
  N  N34  1  0.49961114  0.54103406  0.02145196  1
  N  N35  1  0.49961114  0.45896594  0.52145196  1
