# generated using pymatgen
data_Al2O3
_symmetry_space_group_name_H-M   'P 1'
_cell_length_a   10.62159774
_cell_length_b   10.12797502
_cell_length_c   10.04019742
_cell_angle_alpha   93.21692576
_cell_angle_beta   91.62061005
_cell_angle_gamma   92.34580554
_symmetry_Int_Tables_number   1
_chemical_formula_structural   Al2O3
_chemical_formula_sum   'Al40 O60'
_cell_volume   1076.96508888
_cell_formula_units_Z   20
loop_
 _symmetry_equiv_pos_site_id
 _symmetry_equiv_pos_as_xyz
  1  'x, y, z'
loop_
 _atom_site_type_symbol
 _atom_site_label
 _atom_site_symmetry_multiplicity
 _atom_site_fract_x
 _atom_site_fract_y
 _atom_site_fract_z
 _atom_site_occupancy
  Al  Al0  1  0.79797514  0.36894674  0.62920886  1
  Al  Al1  1  0.63543099  0.56083669  0.64948742  1
  Al  Al2  1  0.00163088  0.75609545  0.72222018  1
  Al  Al3  1  0.72219551  0.45393229  0.94244078  1
  Al  Al4  1  0.80111102  0.66234320  0.45727438  1
  Al  Al5  1  0.10852071  0.44875563  0.75137057  1
  Al  Al6  1  0.32995667  0.33527769  0.35647399  1
  Al  Al7  1  0.93076618  0.33438780  0.99230343  1
  Al  Al8  1  0.45891352  0.54902258  0.08063770  1
  Al  Al9  1  0.74116956  0.84720079  0.71327355  1
  Al  Al10  1  0.34689204  0.64968033  0.32300520  1
  Al  Al11  1  0.44528071  0.09637652  0.78366799  1
  Al  Al12  1  0.56658915  0.18276359  0.26010061  1
  Al  Al13  1  0.69721255  0.08837628  0.52301993  1
  Al  Al14  1  0.45811665  0.71692629  0.80086489  1
  Al  Al15  1  0.21193108  0.75050667  0.09795032  1
  Al  Al16  1  0.22794833  0.12801711  0.59897869  1
  Al  Al17  1  0.14233231  0.14529636  0.89758830  1
  Al  Al18  1  0.22786249  0.89192561  0.86003658  1
  Al  Al19  1  0.58365060  0.81801396  0.45224597  1
  Al  Al20  1  0.51016132  0.27333629  0.54864954  1
  Al  Al21  1  0.05620411  0.72021178  0.31619288  1
  Al  Al22  1  0.98175474  0.48017809  0.50319078  1
  Al  Al23  1  0.04440057  0.00975924  0.42745141  1
  Al  Al24  1  0.32466933  0.98739128  0.31637204  1
  Al  Al25  1  0.97569194  0.19087635  0.70352564  1
  Al  Al26  1  0.83030802  0.92886462  0.26871160  1
  Al  Al27  1  0.66728173  0.41063252  0.34256220  1
  Al  Al28  1  0.70668742  0.13985691  0.82152453  1
  Al  Al29  1  0.30600211  0.52930754  0.59361763  1
  Al  Al30  1  0.87998575  0.22335866  0.29756601  1
  Al  Al31  1  0.52335907  0.93683810  0.01305380  1
  Al  Al32  1  0.65239454  0.68088601  0.19024449  1
  Al  Al33  1  0.41919923  0.42252237  0.81207498  1
  Al  Al34  1  0.12601042  0.21980851  0.20959248  1
  Al  Al35  1  0.91743517  0.94249098  0.94956131  1
  Al  Al36  1  0.37346779  0.20621931  0.02835066  1
  Al  Al37  1  0.21539010  0.43113575  0.09249476  1
  Al  Al38  1  0.00806176  0.62886005  0.95379589  1
  Al  Al39  1  0.28141221  0.84364970  0.55853479  1
  O  O40  1  0.29353375  0.15848065  0.27437119  1
  O  O41  1  0.27288528  0.46568880  0.75737266  1
  O  O42  1  0.86780405  0.78728937  0.61305623  1
  O  O43  1  0.62352462  0.72110217  0.75989820  1
  O  O44  1  0.96166363  0.36342849  0.69161330  1
  O  O45  1  0.79929235  0.18085261  0.65640230  1
  O  O46  1  0.89860194  0.33658463  0.43817643  1
  O  O47  1  0.04292026  0.08030993  0.58746314  1
  O  O48  1  0.49968312  0.33730718  0.31862523  1
  O  O49  1  0.19001365  0.38160872  0.26160210  1
  O  O50  1  0.43967189  0.26415326  0.86915344  1
  O  O51  1  0.21285353  0.98656715  0.45120248  1
  O  O52  1  0.55717503  0.11864498  0.42161129  1
  O  O53  1  0.03000509  0.59738559  0.77158883  1
  O  O54  1  0.15307412  0.83886589  0.68623745  1
  O  O55  1  0.65787583  0.36136863  0.51445216  1
  O  O56  1  0.42337057  0.85865114  0.41696518  1
  O  O57  1  0.19763407  0.23272751  0.04790306  1
  O  O58  1  0.69940493  0.45147856  0.76711207  1
  O  O59  1  0.13794725  0.48387601  0.56385278  1
  O  O60  1  0.48979704  0.09852491  0.11759342  1
  O  O61  1  0.08289198  0.98108539  0.91508423  1
  O  O62  1  0.29247924  0.88746248  0.17334845  1
  O  O63  1  0.80160096  0.98663562  0.82143087  1
  O  O64  1  0.56978744  0.17046620  0.67751696  1
  O  O65  1  0.71669266  0.80834799  0.32936095  1
  O  O66  1  0.62833790  0.66418795  0.50970542  1
  O  O67  1  0.82315734  0.53714076  0.57865179  1
  O  O68  1  0.21125307  0.72933341  0.39444871  1
  O  O69  1  0.30634421  0.06801793  0.90543343  1
  O  O70  1  0.61081359  0.81719951  0.08557947  1
  O  O71  1  0.62899635  0.53288637  0.06454456  1
  O  O72  1  0.71660810  0.26601439  0.24707429  1
  O  O73  1  0.92106486  0.77493969  0.88573143  1
  O  O74  1  0.96181465  0.62003963  0.40748259  1
  O  O75  1  0.96618511  0.28140904  0.15335578  1
  O  O76  1  0.97375386  0.86926542  0.34480320  1
  O  O77  1  0.35239179  0.51082144  0.42381074  1
  O  O78  1  0.09923752  0.45165663  0.96165867  1
  O  O79  1  0.73426665  0.56305964  0.30290449  1
  O  O80  1  0.40269309  0.85007042  0.89751131  1
  O  O81  1  0.87804714  0.50584993  0.98823456  1
  O  O82  1  0.44848371  0.57809228  0.90418099  1
  O  O83  1  0.86207093  0.96952061  0.10927638  1
  O  O84  1  0.34191838  0.01060684  0.65841640  1
  O  O85  1  0.28632972  0.60122052  0.14259957  1
  O  O86  1  0.49456008  0.64327878  0.24165969  1
  O  O87  1  0.80649812  0.06962093  0.38225367  1
  O  O88  1  0.38183299  0.38738698  0.07886972  1
  O  O89  1  0.97770429  0.19608917  0.88460478  1
  O  O90  1  0.17599069  0.74203367  0.93128439  1
  O  O91  1  0.36455491  0.70467751  0.64262767  1
  O  O92  1  0.75559067  0.27802203  0.93893426  1
  O  O93  1  0.65940358  0.92801779  0.57903445  1
  O  O94  1  0.16631524  0.22272630  0.74218631  1
  O  O95  1  0.05519442  0.69489281  0.14076967  1
  O  O96  1  0.57529602  0.03692060  0.87993735  1
  O  O97  1  0.48005702  0.45783602  0.64906346  1
  O  O98  1  0.33638866  0.25542782  0.52428363  1
  O  O99  1  0.03235062  0.13058068  0.31500802  1
