# generated using pymatgen
data_Al2O3
_symmetry_space_group_name_H-M   'P 1'
_cell_length_a   10.97764732
_cell_length_b   9.94871506
_cell_length_c   9.98728151
_cell_angle_alpha   93.97194690
_cell_angle_beta   92.01113379
_cell_angle_gamma   85.55569657
_symmetry_Int_Tables_number   1
_chemical_formula_structural   Al2O3
_chemical_formula_sum   'Al40 O60'
_cell_volume   1084.36945080
_cell_formula_units_Z   20
loop_
 _symmetry_equiv_pos_site_id
 _symmetry_equiv_pos_as_xyz
  1  'x, y, z'
loop_
 _atom_site_type_symbol
 _atom_site_label
 _atom_site_symmetry_multiplicity
 _atom_site_fract_x
 _atom_site_fract_y
 _atom_site_fract_z
 _atom_site_occupancy
  Al  Al0  1  0.37840122  0.59179830  0.35818506  1
  Al  Al1  1  0.39785928  0.00725932  0.90831473  1
  Al  Al2  1  0.90472092  0.68021913  0.61274925  1
  Al  Al3  1  0.98111136  0.50050258  0.84094789  1
  Al  Al4  1  0.24931427  0.80984865  0.77852332  1
  Al  Al5  1  0.88849759  0.21280927  0.66448192  1
  Al  Al6  1  0.32551624  0.26641835  0.59997981  1
  Al  Al7  1  0.91825979  0.06552595  0.01886390  1
  Al  Al8  1  0.31191966  0.78510531  0.09814992  1
  Al  Al9  1  0.09907992  0.35787097  0.61235780  1
  Al  Al10  1  0.81376069  0.55848991  0.14735199  1
  Al  Al11  1  0.64623762  0.17988082  0.98281488  1
  Al  Al12  1  0.74539102  0.14932937  0.26255054  1
  Al  Al13  1  0.49033915  0.85495503  0.61893053  1
  Al  Al14  1  0.00597004  0.91583165  0.74906548  1
  Al  Al15  1  0.98248505  0.31412637  0.11972041  1
  Al  Al16  1  0.77173073  0.36698287  0.90366837  1
  Al  Al17  1  0.99712068  0.10088258  0.30413289  1
  Al  Al18  1  0.51728521  0.99214411  0.40054174  1
  Al  Al19  1  0.33566572  0.30369259  0.02806554  1
  Al  Al20  1  0.48856099  0.28695832  0.24368100  1
  Al  Al21  1  0.83473445  0.76978728  0.93248999  1
  Al  Al22  1  0.62185473  0.73400195  0.31040305  1
  Al  Al23  1  0.10992498  0.85488914  0.24877071  1
  Al  Al24  1  0.17727759  0.61888348  0.59228216  1
  Al  Al25  1  0.26201429  0.00303551  0.39462514  1
  Al  Al26  1  0.77658797  0.95248870  0.51142406  1
  Al  Al27  1  0.51049354  0.54611791  0.09026449  1
  Al  Al28  1  0.85536750  0.42366459  0.43416534  1
  Al  Al29  1  0.60907043  0.66185792  0.85671921  1
  Al  Al30  1  0.15823888  0.54565666  0.08543509  1
  Al  Al31  1  0.62597777  0.57865748  0.56201773  1
  Al  Al32  1  0.32801614  0.55485110  0.84346790  1
  Al  Al33  1  0.22920719  0.31086387  0.32608590  1
  Al  Al34  1  0.13955741  0.13769037  0.83812683  1
  Al  Al35  1  0.06227933  0.59856988  0.34552570  1
  Al  Al36  1  0.52282009  0.34498529  0.73594999  1
  Al  Al37  1  0.86077951  0.85893369  0.23832197  1
  Al  Al38  1  0.59138448  0.91982608  0.07205636  1
  Al  Al39  1  0.63219677  0.24737704  0.51644969  1
  O  O40  1  0.54857987  0.88593130  0.25126639  1
  O  O41  1  0.30317554  0.16162513  0.91906397  1
  O  O42  1  0.87679113  0.85931619  0.62176017  1
  O  O43  1  0.57883254  0.70682919  0.68711471  1
  O  O44  1  0.02496380  0.47867069  0.01252473  1
  O  O45  1  0.18798092  0.22250928  0.68922048  1
  O  O46  1  0.30066822  0.17002562  0.43329673  1
  O  O47  1  0.61739324  0.31369317  0.87301910  1
  O  O48  1  0.99061180  0.95940445  0.16379421  1
  O  O49  1  0.40204171  0.64942059  0.19021117  1
  O  O50  1  0.54812806  0.05414054  0.95154974  1
  O  O51  1  0.10348408  0.99498249  0.39791432  1
  O  O52  1  0.75330750  0.14127860  0.59953887  1
  O  O53  1  0.60974868  0.41625037  0.61369586  1
  O  O54  1  0.61342625  0.93169670  0.53919526  1
  O  O55  1  0.48506213  0.58625612  0.91948096  1
  O  O56  1  0.85855866  0.71664342  0.10008083  1
  O  O57  1  0.79739440  0.16621944  0.93149023  1
  O  O58  1  0.72973297  0.54538891  0.89164631  1
  O  O59  1  0.33242198  0.23990684  0.19085583  1
  O  O60  1  0.82925844  0.39595011  0.06983236  1
  O  O61  1  0.99615311  0.09250047  0.72251099  1
  O  O62  1  0.16141615  0.71520866  0.13654844  1
  O  O63  1  0.47305769  0.38035704  0.08565146  1
  O  O64  1  0.38976688  0.90757058  0.75186736  1
  O  O65  1  0.31408637  0.64769594  0.68927310  1
  O  O66  1  0.78696123  0.57109994  0.53709837  1
  O  O67  1  0.16262107  0.47372191  0.24559069  1
  O  O68  1  0.21759785  0.39652704  0.50769930  1
  O  O69  1  0.26890574  0.71697748  0.92641549  1
  O  O70  1  0.62833592  0.22028233  0.15625363  1
  O  O71  1  0.26560488  0.45947661  0.97832014  1
  O  O72  1  0.02276604  0.58207610  0.51761515  1
  O  O73  1  0.89179031  0.35872098  0.78387310  1
  O  O74  1  0.66823048  0.80522620  0.94125358  1
  O  O75  1  0.23227380  0.65391109  0.42570438  1
  O  O76  1  0.88567486  0.18447868  0.18501686  1
  O  O77  1  0.53259833  0.65670886  0.43072068  1
  O  O78  1  0.26366815  0.91207795  0.23298531  1
  O  O79  1  0.64993226  0.59874603  0.18044859  1
  O  O80  1  0.99752164  0.76328132  0.31968173  1
  O  O81  1  0.08195764  0.24617480  0.27105730  1
  O  O82  1  0.16374522  0.96001266  0.84460814  1
  O  O83  1  0.49103193  0.20969536  0.61580158  1
  O  O84  1  0.95594992  0.31077451  0.53575228  1
  O  O85  1  0.39297998  0.92058366  0.47871250  1
  O  O86  1  0.84813642  0.03443195  0.37378342  1
  O  O87  1  0.73736302  0.31110493  0.39312201  1
  O  O88  1  0.10822265  0.49420117  0.73613846  1
  O  O89  1  0.10830521  0.77918810  0.67590597  1
  O  O90  1  0.90716664  0.66043087  0.79503259  1
  O  O91  1  0.91792241  0.91195264  0.90361912  1
  O  O92  1  0.91177793  0.50164667  0.29172204  1
  O  O93  1  0.42541595  0.88467382  0.03023255  1
  O  O94  1  0.36973550  0.39597504  0.74639761  1
  O  O95  1  0.04084453  0.18509648  0.98756200  1
  O  O96  1  0.76100446  0.80066895  0.36606875  1
  O  O97  1  0.56664760  0.15187138  0.36975165  1
  O  O98  1  0.42963508  0.41890705  0.36139525  1
  O  O99  1  0.74152403  0.97666120  0.14319490  1
