# generated using pymatgen
data_Ca2MgN2
_symmetry_space_group_name_H-M   'P 1'
_cell_length_a   6.36792850
_cell_length_b   8.23989621
_cell_length_c   6.23493590
_cell_angle_alpha   90.00000000
_cell_angle_beta   98.27938824
_cell_angle_gamma   90.00000000
_symmetry_Int_Tables_number   1
_chemical_formula_structural   Ca2MgN2
_chemical_formula_sum   'Ca8 Mg4 N8'
_cell_volume   323.74404870
_cell_formula_units_Z   4
loop_
 _symmetry_equiv_pos_site_id
 _symmetry_equiv_pos_as_xyz
  1  'x, y, z'
loop_
 _atom_site_type_symbol
 _atom_site_label
 _atom_site_symmetry_multiplicity
 _atom_site_fract_x
 _atom_site_fract_y
 _atom_site_fract_z
 _atom_site_occupancy
  Ca  Ca0  1  0.07567556  0.13401123  0.69074465  1
  Ca  Ca1  1  0.92432444  0.63401123  0.80925535  1
  Ca  Ca2  1  0.92432444  0.86598877  0.30925535  1
  Ca  Ca3  1  0.07567556  0.36598877  0.19074465  1
  Ca  Ca4  1  0.66522073  0.36555410  0.55405414  1
  Ca  Ca5  1  0.33477927  0.86555410  0.94594586  1
  Ca  Ca6  1  0.33477927  0.63444590  0.44594586  1
  Ca  Ca7  1  0.66522073  0.13444590  0.05405414  1
  Mg  Mg8  1  0.37462838  0.38889502  0.88146213  1
  Mg  Mg9  1  0.62537162  0.88889502  0.61853787  1
  Mg  Mg10  1  0.62537162  0.61110498  0.11853787  1
  Mg  Mg11  1  0.37462838  0.11110498  0.38146213  1
  N  N12  1  0.27166102  0.90724640  0.55556964  1
  N  N13  1  0.72833898  0.40724640  0.94443036  1
  N  N14  1  0.72833898  0.09275360  0.44443036  1
  N  N15  1  0.27166102  0.59275360  0.05556964  1
  N  N16  1  0.28382398  0.34134112  0.54459549  1
  N  N17  1  0.71617602  0.84134112  0.95540451  1
  N  N18  1  0.71617602  0.65865888  0.45540451  1
  N  N19  1  0.28382398  0.15865888  0.04459549  1
