# generated using pymatgen
data_Al2O3
_symmetry_space_group_name_H-M   'P 1'
_cell_length_a   10.01873091
_cell_length_b   10.12149522
_cell_length_c   10.43627615
_cell_angle_alpha   93.32405816
_cell_angle_beta   91.30725226
_cell_angle_gamma   95.00265022
_symmetry_Int_Tables_number   1
_chemical_formula_structural   Al2O3
_chemical_formula_sum   'Al40 O60'
_cell_volume   1052.06730971
_cell_formula_units_Z   20
loop_
 _symmetry_equiv_pos_site_id
 _symmetry_equiv_pos_as_xyz
  1  'x, y, z'
loop_
 _atom_site_type_symbol
 _atom_site_label
 _atom_site_symmetry_multiplicity
 _atom_site_fract_x
 _atom_site_fract_y
 _atom_site_fract_z
 _atom_site_occupancy
  Al  Al0  1  0.75379120  0.58784739  0.51627435  1
  Al  Al1  1  0.69330403  0.81451201  0.38413401  1
  Al  Al2  1  0.48768863  0.83727752  0.76962160  1
  Al  Al3  1  0.84374791  0.56383281  0.00386717  1
  Al  Al4  1  0.86598620  0.31226128  0.10652694  1
  Al  Al5  1  0.28685924  0.86401556  0.59625213  1
  Al  Al6  1  0.19777841  0.53884927  0.54993556  1
  Al  Al7  1  0.98505761  0.27088409  0.56558838  1
  Al  Al8  1  0.40158739  0.43824908  0.23885161  1
  Al  Al9  1  0.80498287  0.33815623  0.82707210  1
  Al  Al10  1  0.46204159  0.65744078  0.48446069  1
  Al  Al11  1  0.26764043  0.53520417  0.84499022  1
  Al  Al12  1  0.68328159  0.30424374  0.44390386  1
  Al  Al13  1  0.78735831  0.05408962  0.58521184  1
  Al  Al14  1  0.71933659  0.06995508  0.94950926  1
  Al  Al15  1  0.97454741  0.83600273  0.63953369  1
  Al  Al16  1  0.31926660  0.13554225  0.12030636  1
  Al  Al17  1  0.01303219  0.05884708  0.80791850  1
  Al  Al18  1  0.60018751  0.54204725  0.76611558  1
  Al  Al19  1  0.49648604  0.06110258  0.43010808  1
  Al  Al20  1  0.56449572  0.12402129  0.74012868  1
  Al  Al21  1  0.11536943  0.56792259  0.17126422  1
  Al  Al22  1  0.96887581  0.55935047  0.72253444  1
  Al  Al23  1  0.16852113  0.75861022  0.34928932  1
  Al  Al24  1  0.36774315  0.65092176  0.09918717  1
  Al  Al25  1  0.36324516  0.32799488  0.51213470  1
  Al  Al26  1  0.02378257  0.09301907  0.08119002  1
  Al  Al27  1  0.58138783  0.22509292  0.17865057  1
  Al  Al28  1  0.78359217  0.79184011  0.81067309  1
  Al  Al29  1  0.14271352  0.02143943  0.43750477  1
  Al  Al30  1  0.78358608  0.04321047  0.26620548  1
  Al  Al31  1  0.63694285  0.55486380  0.19432855  1
  Al  Al32  1  0.47236916  0.93779105  0.16821243  1
  Al  Al33  1  0.46678990  0.38246062  0.93790769  1
  Al  Al34  1  0.20909191  0.91753298  0.91376143  1
  Al  Al35  1  0.68845257  0.82759125  0.07571989  1
  Al  Al36  1  0.12033549  0.29774607  0.31373907  1
  Al  Al37  1  0.27607593  0.23379741  0.78716574  1
  Al  Al38  1  0.99588859  0.82672340  0.15883866  1
  Al  Al39  1  0.88921888  0.52518718  0.30018188  1
  O  O40  1  0.83131381  0.87998046  0.19396058  1
  O  O41  1  0.16219549  0.18452813  0.16355230  1
  O  O42  1  0.73290630  0.17295893  0.79410241  1
  O  O43  1  0.03759918  0.88016016  0.79976767  1
  O  O44  1  0.51100510  0.24664888  0.49054388  1
  O  O45  1  0.92598613  0.38732462  0.70689203  1
  O  O46  1  0.08189199  0.41007435  0.48386174  1
  O  O47  1  0.32159628  0.99746994  0.47697208  1
  O  O48  1  0.70418772  0.22846366  0.04876742  1
  O  O49  1  0.91829227  0.66284982  0.59504016  1
  O  O50  1  0.43773547  0.26044313  0.07038574  1
  O  O51  1  0.97052967  0.11543156  0.65758956  1
  O  O52  1  0.06681516  0.16827575  0.42080942  1
  O  O53  1  0.78909824  0.46431916  0.15935143  1
  O  O54  1  0.27093201  0.67149442  0.95461972  1
  O  O55  1  0.81587101  0.89592007  0.67511055  1
  O  O56  1  0.67704128  0.17066625  0.31615677  1
  O  O57  1  0.91104965  0.40192836  0.96277366  1
  O  O58  1  0.66162781  0.48577356  0.61966093  1
  O  O59  1  0.11059611  0.89826692  0.55475640  1
  O  O60  1  0.43249720  0.09765098  0.25115697  1
  O  O61  1  0.92739579  0.12437832  0.94208789  1
  O  O62  1  0.50629600  0.78077215  0.09963032  1
  O  O63  1  0.77547563  0.89965081  0.94395869  1
  O  O64  1  0.64053633  0.71277356  0.51077173  1
  O  O65  1  0.33628864  0.97554948  0.04533984  1
  O  O66  1  0.86824250  0.63921055  0.84081690  1
  O  O67  1  0.25522686  0.36979281  0.89585597  1
  O  O68  1  0.24577407  0.72884479  0.20450516  1
  O  O69  1  0.18545091  0.09659495  0.85969130  1
  O  O70  1  0.64132521  0.00349633  0.11673726  1
  O  O71  1  0.37228096  0.50677973  0.54678148  1
  O  O72  1  0.57135628  0.38414265  0.27101433  1
  O  O73  1  0.01104593  0.40035395  0.21944407  1
  O  O74  1  0.80721275  0.22157458  0.52919584  1
  O  O75  1  0.90388756  0.15366943  0.18840230  1
  O  O76  1  0.07305152  0.93104753  0.04563379  1
  O  O77  1  0.24450266  0.70190558  0.48744614  1
  O  O78  1  0.47180382  0.60386945  0.31495182  1
  O  O79  1  0.09040040  0.90207926  0.30613260  1
  O  O80  1  0.54894358  0.90539781  0.33721699  1
  O  O81  1  0.45475089  0.23412285  0.80644655  1
  O  O82  1  0.26001346  0.48922907  0.15266434  1
  O  O83  1  0.66570223  0.43347057  0.87756846  1
  O  O84  1  0.44386671  0.79335449  0.60480263  1
  O  O85  1  0.48877850  0.51144313  0.08084424  1
  O  O86  1  0.15026082  0.57065063  0.71499674  1
  O  O87  1  0.71553736  0.65901161  0.06210753  1
  O  O88  1  0.61371408  0.72120862  0.79317073  1
  O  O89  1  0.76031494  0.65765166  0.31950280  1
  O  O90  1  0.30965065  0.87621481  0.77393938  1
  O  O91  1  0.59693281  0.04585316  0.58594806  1
  O  O92  1  0.80472548  0.44596168  0.42450006  1
  O  O93  1  0.43740514  0.51052499  0.81332304  1
  O  O94  1  0.25084418  0.25792443  0.62367533  1
  O  O95  1  0.03950346  0.62973899  0.32548195  1
  O  O96  1  0.56312199  0.98925212  0.84389407  1
  O  O97  1  0.99155565  0.65610375  0.08795387  1
  O  O98  1  0.29906027  0.33599926  0.34761861  1
  O  O99  1  0.80258052  0.96336680  0.42638308  1
