# generated using pymatgen
data_Mg2NbN3
_symmetry_space_group_name_H-M   'P 1'
_cell_length_a   5.39780497
_cell_length_b   5.39780448
_cell_length_c   5.39729286
_cell_angle_alpha   99.69098277
_cell_angle_beta   99.69098395
_cell_angle_gamma   119.92492645
_symmetry_Int_Tables_number   1
_chemical_formula_structural   Mg2NbN3
_chemical_formula_sum   'Mg4 Nb2 N6'
_cell_volume   128.35388906
_cell_formula_units_Z   2
loop_
 _symmetry_equiv_pos_site_id
 _symmetry_equiv_pos_as_xyz
  1  'x, y, z'
loop_
 _atom_site_type_symbol
 _atom_site_label
 _atom_site_symmetry_multiplicity
 _atom_site_fract_x
 _atom_site_fract_y
 _atom_site_fract_z
 _atom_site_occupancy
  Mg  Mg0  1  0.83688152  0.16311848  0.50000000  1
  Mg  Mg1  1  0.16311848  0.83688152  0.50000000  1
  Mg  Mg2  1  0.50000000  0.50000000  0.50000000  1
  Mg  Mg3  1  -0.00000000  -0.00000000  0.00000000  1
  Nb  Nb4  1  0.33185733  0.66814267  0.00000000  1
  Nb  Nb5  1  0.66814267  0.33185733  1.00000000  1
  N  N6  1  0.42475224  0.07838125  0.23488771  1
  N  N7  1  0.92161875  0.57524776  0.76511229  1
  N  N8  1  0.57524776  0.92161875  0.76511229  1
  N  N9  1  0.07838125  0.42475224  0.23488771  1
  N  N10  1  0.73379541  0.73379541  0.24002213  1
  N  N11  1  0.26620459  0.26620459  0.75997787  1
