# generated using pymatgen
data_BN
_symmetry_space_group_name_H-M   'P 1'
_cell_length_a   10.83713714
_cell_length_b   10.83012459
_cell_length_c   10.36520160
_cell_angle_alpha   88.92337876
_cell_angle_beta   97.34155141
_cell_angle_gamma   90.38644372
_symmetry_Int_Tables_number   1
_chemical_formula_structural   BN
_chemical_formula_sum   'B50 N50'
_cell_volume   1206.34055170
_cell_formula_units_Z   50
loop_
 _symmetry_equiv_pos_site_id
 _symmetry_equiv_pos_as_xyz
  1  'x, y, z'
loop_
 _atom_site_type_symbol
 _atom_site_label
 _atom_site_symmetry_multiplicity
 _atom_site_fract_x
 _atom_site_fract_y
 _atom_site_fract_z
 _atom_site_occupancy
  B  B0  1  0.63197014  0.86804055  0.51100790  1
  B  B1  1  0.98141536  0.56112026  0.94603333  1
  B  B2  1  0.33073471  0.60035052  0.61234662  1
  B  B3  1  0.32374067  0.48323274  0.16354703  1
  B  B4  1  0.72467397  0.75927447  0.47305106  1
  B  B5  1  0.53476298  0.30660117  0.51945243  1
  B  B6  1  0.87650159  0.19670648  0.44977974  1
  B  B7  1  0.67777012  0.33727332  0.65969091  1
  B  B8  1  0.93608488  0.34512480  0.49986560  1
  B  B9  1  0.88851991  0.93816930  0.71262394  1
  B  B10  1  0.30384078  0.25460665  0.82603932  1
  B  B11  1  0.49574237  0.98714318  0.56422525  1
  B  B12  1  0.99119028  0.75799114  0.56716096  1
  B  B13  1  0.31438350  0.27710176  0.06696906  1
  B  B14  1  0.38094135  0.29555324  0.30931612  1
  B  B15  1  0.09192072  0.53835636  0.60757573  1
  B  B16  1  0.10262554  0.37921199  0.55765447  1
  B  B17  1  0.28327416  0.85961213  0.88316763  1
  B  B18  1  0.38449807  0.69251451  0.25855253  1
  B  B19  1  0.27998420  0.46012093  0.91517998  1
  B  B20  1  0.24409943  0.65690017  0.79132471  1
  B  B21  1  0.93910386  0.93607129  -0.00008137  1
  B  B22  1  0.33032679  0.53066969  0.41440251  1
  B  B23  1  0.11310040  0.26180273  0.44842637  1
  B  B24  1  0.36176730  0.82088419  0.67963682  1
  B  B25  1  0.29679293  0.66940362  0.02543166  1
  B  B26  1  0.96296453  0.31671225  0.25838287  1
  B  B27  1  0.90301884  0.11784631  0.19123610  1
  B  B28  1  0.30585264  0.06872400  0.97072286  1
  B  B29  1  0.96075557  0.79513727  0.81675895  1
  B  B30  1  0.08783202  0.64816246  0.37029703  1
  B  B31  1  0.99805811  0.71610824  0.04260322  1
  B  B32  1  0.43664950  0.90712333  0.33682715  1
  B  B33  1  0.94807112  0.54173050  0.20230469  1
  B  B34  1  0.89340736  0.57951076  0.45248866  1
  B  B35  1  0.05372944  0.79424284  0.41776396  1
  B  B36  1  0.17893035  0.43411811  0.32006305  1
  B  B37  1  0.25369358  0.43770167  0.65312616  1
  B  B38  1  0.71985562  0.41568652  0.42172401  1
  B  B39  1  0.45439432  0.21633330  0.69425134  1
  B  B40  1  0.36773043  0.09220533  0.20553165  1
  B  B41  1  0.00079332  0.91944495  0.19786350  1
  B  B42  1  0.86976134  0.39599475  0.81505403  1
  B  B43  1  0.45251867  0.10488620  0.44456405  1
  B  B44  1  0.78074211  0.02222107  0.60067875  1
  B  B45  1  0.44012256  0.73372062  0.48638882  1
  B  B46  1  0.33630441  0.88065625  0.11533342  1
  B  B47  1  0.34850714  0.03178025  0.74625663  1
  B  B48  1  0.08228012  0.02758711  0.39911358  1
  B  B49  1  0.76924047  0.41062390  0.22557367  1
  N  N50  1  0.49062663  0.85987912  0.46419682  1
  N  N51  1  0.04555039  0.21086610  0.75349252  1
  N  N52  1  0.18525002  0.55523943  0.37040100  1
  N  N53  1  0.68248679  0.13483980  0.98844682  1
  N  N54  1  0.41940295  0.03741445  0.32620024  1
  N  N55  1  0.67017364  0.41537996  0.28519703  1
  N  N56  1  0.32379011  0.42325009  0.29998377  1
  N  N57  1  0.21606246  0.58266270  0.67585823  1
  N  N58  1  0.29062399  0.80242765  0.00989068  1
  N  N59  1  0.78925836  0.66783523  0.45118730  1
  N  N60  1  0.27742053  0.78381017  0.77257098  1
  N  N61  1  0.39694579  0.71507390  0.60886996  1
  N  N62  1  0.29745016  0.98941301  0.86111756  1
  N  N63  1  0.62674545  0.07254168  0.91899852  1
  N  N64  1  0.85496447  0.44415845  0.46747874  1
  N  N65  1  0.64610261  0.37866743  0.52141948  1
  N  N66  1  0.93985249  0.02796578  0.11572478  1
  N  N67  1  0.04684197  0.91495885  0.33740796  1
  N  N68  1  0.44796224  0.24180126  0.42664332  1
  N  N69  1  0.77129540  0.33661379  0.75900061  1
  N  N70  1  0.12247363  0.13157557  0.44740335  1
  N  N71  1  0.28285326  0.38364099  0.79625395  1
  N  N72  1  0.04436389  0.11240742  0.72470956  1
  N  N73  1  0.32953181  0.01329590  0.09826033  1
  N  N74  1  0.99019785  0.69482643  0.90312680  1
  N  N75  1  0.34904075  0.16841183  0.73070214  1
  N  N76  1  0.99607885  0.59042886  0.08980637  1
  N  N77  1  0.95538760  0.82557281  0.67719180  1
  N  N78  1  0.35126525  0.22340250  0.19451570  1
  N  N79  1  0.96374540  0.45293158  0.88140908  1
  N  N80  1  0.33602650  0.61426499  0.15141611  1
  N  N81  1  0.30421995  0.40824145  0.04843811  1
  N  N82  1  0.09216402  0.33076174  0.31427973  1
  N  N83  1  0.26416220  0.59332522  0.91292039  1
  N  N84  1  0.30092832  0.20087173  0.95402911  1
  N  N85  1  0.39201910  0.82528067  0.23522308  1
  N  N86  1  0.92039929  0.91927870  0.86257694  1
  N  N87  1  0.88834420  0.41441153  0.19056221  1
  N  N88  1  0.98942420  0.83601918  0.09210855  1
  N  N89  1  0.96138417  0.60158900  0.32506292  1
  N  N90  1  0.62733749  0.60613282  0.83672039  1
  N  N91  1  0.64566007  0.97165998  0.58838476  1
  N  N92  1  0.55265217  0.27151740  0.66145375  1
  N  N93  1  0.40609252  0.94769754  0.66594976  1
  N  N94  1  0.99503774  0.61815505  0.57048701  1
  N  N95  1  0.82040850  0.10556160  0.51062121  1
  N  N96  1  0.89418876  0.19834607  0.28557671  1
  N  N97  1  0.57050794  0.56765381  0.91035575  1
  N  N98  1  0.41125064  0.64331817  0.38797648  1
  N  N99  1  0.35008687  0.48277942  0.55906616  1
