# generated using pymatgen
data_BN
_symmetry_space_group_name_H-M   'P 1'
_cell_length_a   10.75648149
_cell_length_b   10.44419498
_cell_length_c   10.66331271
_cell_angle_alpha   81.81229773
_cell_angle_beta   90.24926195
_cell_angle_gamma   94.24758247
_symmetry_Int_Tables_number   1
_chemical_formula_structural   BN
_chemical_formula_sum   'B50 N50'
_cell_volume   1182.45526245
_cell_formula_units_Z   50
loop_
 _symmetry_equiv_pos_site_id
 _symmetry_equiv_pos_as_xyz
  1  'x, y, z'
loop_
 _atom_site_type_symbol
 _atom_site_label
 _atom_site_symmetry_multiplicity
 _atom_site_fract_x
 _atom_site_fract_y
 _atom_site_fract_z
 _atom_site_occupancy
  B  B0  1  0.60945336  0.26936795  0.58474328  1
  B  B1  1  0.04903977  0.81542104  0.54373589  1
  B  B2  1  0.35677573  0.18780319  0.64759695  1
  B  B3  1  0.86085869  0.92924349  0.42648437  1
  B  B4  1  0.84384803  0.85619959  0.88187789  1
  B  B5  1  0.62194971  0.14219080  0.44068600  1
  B  B6  1  0.90788201  0.18354201  0.38252819  1
  B  B7  1  0.51751690  0.73772116  0.24446652  1
  B  B8  1  0.05224474  0.91360847  0.75009498  1
  B  B9  1  0.93309350  0.02559752  0.91099314  1
  B  B10  1  0.35422137  0.54449548  0.87570408  1
  B  B11  1  0.73310311  0.95073054  0.77186014  1
  B  B12  1  0.21576817  0.69293377  0.96595861  1
  B  B13  1  0.07014777  0.67695486  0.76149799  1
  B  B14  1  0.53465674  0.44606061  0.06728128  1
  B  B15  1  0.23453272  0.85964213  0.14092790  1
  B  B16  1  0.42689960  0.65681531  0.06012429  1
  B  B17  1  0.81221385  0.15540554  0.17880533  1
  B  B18  1  0.51758092  0.89134686  0.13238100  1
  B  B19  1  0.81097975  0.36641770  0.77633825  1
  B  B20  1  0.67034362  0.50290172  0.45404954  1
  B  B21  1  0.05955050  0.43561980  0.79163299  1
  B  B22  1  0.97064438  0.24224415  0.52384961  1
  B  B23  1  0.67333544  0.00365689  0.53287416  1
  B  B24  1  0.48059384  0.05349554  0.96876006  1
  B  B25  1  0.27839220  0.35562991  0.79235054  1
  B  B26  1  0.72567214  0.45957554  0.67121925  1
  B  B27  1  0.22586228  0.97733086  0.25833201  1
  B  B28  1  0.14346655  0.17600628  0.70070773  1
  B  B29  1  0.14232573  0.30573345  0.99383003  1
  B  B30  1  0.60094665  0.92675535  0.37751928  1
  B  B31  1  0.72526436  0.16191021  0.56618486  1
  B  B32  1  0.60607145  0.35142826  0.31501027  1
  B  B33  1  0.96167808  0.26765475  0.92453977  1
  B  B34  1  0.73557222  0.69338874  0.74425445  1
  B  B35  1  0.17384145  0.20396953  0.21003793  1
  B  B36  1  0.07870430  0.79825613  0.95135838  1
  B  B37  1  0.19475815  0.00787952  0.58926599  1
  B  B38  1  0.99006124  0.29223239  0.17197435  1
  B  B39  1  0.64976882  0.30879649  0.93685843  1
  B  B40  1  0.12756792  0.58095445  0.57601985  1
  B  B41  1  0.44604762  0.07785518  0.54471212  1
  B  B42  1  0.07134461  0.29575869  0.38394560  1
  B  B43  1  0.71070181  0.01531879  0.01513706  1
  B  B44  1  0.54947994  0.57912181  0.24602872  1
  B  B45  1  0.29543871  0.11659377  0.04617029  1
  B  B46  1  0.13166764  0.35946218  0.50823796  1
  B  B47  1  0.07753743  0.02775631  0.39539188  1
  B  B48  1  0.17835488  0.72618269  0.37772493  1
  B  B49  1  0.83744621  0.70045641  0.46597160  1
  N  N50  1  0.28186604  0.99398635  0.13371854  1
  N  N51  1  0.17736514  0.48499420  0.51385852  1
  N  N52  1  0.21800778  0.59165053  0.34534392  1
  N  N53  1  0.61072889  0.22757235  0.33020293  1
  N  N54  1  0.37329446  0.45895802  0.80221558  1
  N  N55  1  0.44573756  0.76848472  0.12433767  1
  N  N56  1  0.72278367  0.27515755  0.85323085  1
  N  N57  1  0.01248853  0.31335732  0.04137552  1
  N  N58  1  0.18036096  0.79353566  0.04104936  1
  N  N59  1  0.12342230  0.94353764  0.49989753  1
  N  N60  1  0.31734156  0.07264972  0.58084056  1
  N  N61  1  0.92575274  0.60829168  0.19547350  1
  N  N62  1  0.76769625  0.07011076  0.11131923  1
  N  N63  1  0.07202945  0.25647375  0.61090558  1
  N  N64  1  0.98328440  0.89073314  0.89156928  1
  N  N65  1  0.10041198  0.30079254  0.25362550  1
  N  N66  1  0.64752100  0.41182865  0.56860725  1
  N  N67  1  0.75957914  0.60850861  0.44092799  1
  N  N68  1  0.71406196  0.58465230  0.70636065  1
  N  N69  1  0.33716714  0.63797287  0.95791930  1
  N  N70  1  0.16186010  0.36888298  0.86490981  1
  N  N71  1  0.54811500  0.86962332  0.27035298  1
  N  N72  1  0.86401300  0.64980756  0.11840198  1
  N  N73  1  0.58049983  0.35130554  0.02501189  1
  N  N74  1  0.79021445  0.97973059  0.90634322  1
  N  N75  1  0.75445779  0.80698659  0.79919333  1
  N  N76  1  0.57359697  0.97653902  0.02021272  1
  N  N77  1  0.04205263  0.79871485  0.68988286  1
  N  N78  1  0.17371012  0.08474038  0.30122455  1
  N  N79  1  0.09978169  0.68223755  0.89510966  1
  N  N80  1  0.94217234  0.04163925  0.38572691  1
  N  N81  1  0.22170813  0.22080598  0.07973969  1
  N  N82  1  0.50153920  0.55181983  0.12002299  1
  N  N83  1  0.38443615  0.11990234  0.94650190  1
  N  N84  1  0.53547714  0.01137931  0.47452340  1
  N  N85  1  0.12320148  0.70899731  0.49829111  1
  N  N86  1  0.98567174  0.14225208  0.90733010  1
  N  N87  1  0.48752628  0.19978154  0.60284838  1
  N  N88  1  0.08179539  0.56053321  0.70569115  1
  N  N89  1  0.20957178  0.83265424  0.28061740  1
  N  N90  1  0.71042270  0.02657977  0.65930322  1
  N  N91  1  0.60233098  0.48005943  0.32991080  1
  N  N92  1  0.72111261  0.93361841  0.43153770  1
  N  N93  1  0.91408957  0.80959028  0.47946244  1
  N  N94  1  0.87555027  0.24400208  0.24417892  1
  N  N95  1  0.25846209  0.54583599  0.26416994  1
  N  N96  1  0.12379998  0.03000514  0.70700141  1
  N  N97  1  0.84714313  0.21130226  0.50544489  1
  N  N98  1  0.27139188  0.24322272  0.72234948  1
  N  N99  1  0.93770007  0.37163623  0.81886619  1
