# generated using pymatgen
data_Y2Zn3N4
_symmetry_space_group_name_H-M   'P 1'
_cell_length_a   6.82329159
_cell_length_b   7.17923331
_cell_length_c   6.34569454
_cell_angle_alpha   89.99999624
_cell_angle_beta   91.45885137
_cell_angle_gamma   121.74116804
_symmetry_Int_Tables_number   1
_chemical_formula_structural   Y2Zn3N4
_chemical_formula_sum   'Y4 Zn6 N8'
_cell_volume   264.23889251
_cell_formula_units_Z   2
loop_
 _symmetry_equiv_pos_site_id
 _symmetry_equiv_pos_as_xyz
  1  'x, y, z'
loop_
 _atom_site_type_symbol
 _atom_site_label
 _atom_site_symmetry_multiplicity
 _atom_site_fract_x
 _atom_site_fract_y
 _atom_site_fract_z
 _atom_site_occupancy
  Y  Y0  1  0.71617552  0.23004931  0.64164238  1
  Y  Y1  1  0.28382448  0.51387379  0.85835762  1
  Y  Y2  1  0.28382448  0.76995069  0.35835762  1
  Y  Y3  1  0.71617552  0.48612621  0.14164238  1
  Zn  Zn4  1  0.30487991  0.06834569  0.02997752  1
  Zn  Zn5  1  0.69512009  0.76346578  0.47002248  1
  Zn  Zn6  1  0.69512009  0.93165431  0.97002248  1
  Zn  Zn7  1  0.30487991  0.23653422  0.52997752  1
  Zn  Zn8  1  0.00000000  0.73912004  0.75000000  1
  Zn  Zn9  1  -0.00000000  0.26087996  0.25000000  1
  N  N10  1  0.46682077  0.15403896  0.33192975  1
  N  N11  1  0.53317923  0.68721820  0.16807025  1
  N  N12  1  0.53317923  0.84596104  0.66807025  1
  N  N13  1  0.46682077  0.31278180  0.83192975  1
  N  N14  1  0.90117936  0.25211341  0.97581465  1
  N  N15  1  0.09882064  0.35093405  0.52418535  1
  N  N16  1  0.09882064  0.74788659  0.02418535  1
  N  N17  1  0.90117936  0.64906595  0.47581465  1
