# generated using pymatgen
data_Ag2B8O13
_symmetry_space_group_name_H-M   'P 1'
_cell_length_a   8.48136502
_cell_length_b   10.73510662
_cell_length_c   11.58937098
_cell_angle_alpha   101.09477383
_cell_angle_beta   90.00000000
_cell_angle_gamma   90.00000000
_symmetry_Int_Tables_number   1
_chemical_formula_structural   Ag2B8O13
_chemical_formula_sum   'Ag8 B32 O52'
_cell_volume   1035.47186723
_cell_formula_units_Z   4
loop_
 _symmetry_equiv_pos_site_id
 _symmetry_equiv_pos_as_xyz
  1  'x, y, z'
loop_
 _atom_site_type_symbol
 _atom_site_label
 _atom_site_symmetry_multiplicity
 _atom_site_fract_x
 _atom_site_fract_y
 _atom_site_fract_z
 _atom_site_occupancy
  Ag  Ag0  1  0.12446363  0.81497546  0.61848551  1
  Ag  Ag1  1  0.13317108  0.46176573  0.92506016  1
  Ag  Ag2  1  0.36810846  0.96116233  0.92594717  1
  Ag  Ag3  1  0.41379727  0.30565047  0.61477321  1
  Ag  Ag4  1  0.62446363  0.68502454  0.38151449  1
  Ag  Ag5  1  0.63317108  0.03823427  0.07493984  1
  Ag  Ag6  1  0.86810846  0.53883767  0.07405283  1
  Ag  Ag7  1  0.91379727  0.19434953  0.38522679  1
  B  B8  1  0.00409623  0.54046886  0.70975759  1
  B  B9  1  0.04155466  0.69782892  0.32778774  1
  B  B10  1  0.07234551  0.89184824  0.24288242  1
  B  B11  1  0.07751924  0.74084738  0.87204949  1
  B  B12  1  0.09423595  0.06565770  0.12454174  1
  B  B13  1  0.11433245  0.10644219  0.59996515  1
  B  B14  1  0.16970335  0.21943589  0.00431198  1
  B  B15  1  0.17913662  0.55276192  0.43993334  1
  B  B16  1  0.32044591  0.05253907  0.43972078  1
  B  B17  1  0.33054861  0.71971759  0.00472675  1
  B  B18  1  0.38587628  0.60474730  0.59948497  1
  B  B19  1  0.40625931  0.56638747  0.12530148  1
  B  B20  1  0.42296269  0.24127335  0.87262579  1
  B  B21  1  0.42912650  0.39146462  0.24191707  1
  B  B22  1  0.45636123  0.19773807  0.32762452  1
  B  B23  1  0.49642269  0.04067796  0.71025092  1
  B  B24  1  0.50409623  0.95953114  0.29024241  1
  B  B25  1  0.54155466  0.80217108  0.67221226  1
  B  B26  1  0.57234551  0.60815176  0.75711758  1
  B  B27  1  0.57751924  0.75915262  0.12795051  1
  B  B28  1  0.59423595  0.43434230  0.87545826  1
  B  B29  1  0.61433245  0.39355781  0.40003485  1
  B  B30  1  0.66970335  0.28056411  0.99568802  1
  B  B31  1  0.67913662  0.94723808  0.56006666  1
  B  B32  1  0.82044591  0.44746093  0.56027922  1
  B  B33  1  0.83054861  0.78028241  0.99527325  1
  B  B34  1  0.88587628  0.89525270  0.40051503  1
  B  B35  1  0.90625931  0.93361253  0.87469852  1
  B  B36  1  0.92296269  0.25872665  0.12737421  1
  B  B37  1  0.92912650  0.10853538  0.75808293  1
  B  B38  1  0.95636123  0.30226193  0.67237548  1
  B  B39  1  0.99642269  0.45932204  0.28974908  1
  O  O40  1  0.03614736  0.04201288  0.67663595  1
  O  O41  1  0.02206148  0.42313316  0.73972494  1
  O  O42  1  0.04038393  0.29100267  0.04476845  1
  O  O43  1  0.03449291  0.86307329  0.83477443  1
  O  O44  1  0.08560710  0.23033032  0.59918606  1
  O  O45  1  0.09667125  0.44730365  0.38204136  1
  O  O46  1  0.08837079  0.64257952  0.76505584  1
  O  O47  1  0.11126212  0.77083905  0.24600577  1
  O  O48  1  0.13457728  0.95355955  0.15847557  1
  O  O49  1  0.15985843  0.67057537  0.41458902  1
  O  O50  1  0.19307955  0.10215354  0.03952928  1
  O  O51  1  0.21774965  0.02949189  0.52620627  1
  O  O52  1  0.26577139  0.26113294  0.92684329  1
  O  O53  1  0.23476073  0.76103476  0.92683301  1
  O  O54  1  0.28367194  0.52855885  0.52468191  1
  O  O55  1  0.30695130  0.60277539  0.04041855  1
  O  O56  1  0.33590496  0.16994259  0.41277136  1
  O  O57  1  0.36545127  0.45412782  0.15879204  1
  O  O58  1  0.38840701  0.27091075  0.24534110  1
  O  O59  1  0.41281658  0.14349150  0.76494658  1
  O  O60  1  0.40430409  0.94761970  0.38298732  1
  O  O61  1  0.40915999  0.73046012  0.60270026  1
  O  O62  1  0.46633170  0.36341764  0.83507545  1
  O  O63  1  0.45983668  0.79132489  0.04526071  1
  O  O64  1  0.47688943  0.92341868  0.73981010  1
  O  O65  1  0.46861341  0.53999954  0.67373400  1
  O  O66  1  0.53614736  0.45798712  0.32336405  1
  O  O67  1  0.52206148  0.07686684  0.26027506  1
  O  O68  1  0.54038393  0.20899733  0.95523155  1
  O  O69  1  0.53449291  0.63692671  0.16522557  1
  O  O70  1  0.58560710  0.26966968  0.40081394  1
  O  O71  1  0.59667125  0.05269635  0.61795864  1
  O  O72  1  0.58837079  0.85742048  0.23494416  1
  O  O73  1  0.61126212  0.72916095  0.75399423  1
  O  O74  1  0.63457728  0.54644045  0.84152443  1
  O  O75  1  0.65985843  0.82942463  0.58541098  1
  O  O76  1  0.69307955  0.39784646  0.96047072  1
  O  O77  1  0.71774965  0.47050811  0.47379373  1
  O  O78  1  0.76577139  0.23886706  0.07315671  1
  O  O79  1  0.73476073  0.73896524  0.07316699  1
  O  O80  1  0.78367194  0.97144115  0.47531809  1
  O  O81  1  0.80695130  0.89722461  0.95958145  1
  O  O82  1  0.83590496  0.33005741  0.58722864  1
  O  O83  1  0.86545127  0.04587218  0.84120796  1
  O  O84  1  0.88840701  0.22908925  0.75465890  1
  O  O85  1  0.91281658  0.35650850  0.23505342  1
  O  O86  1  0.90430409  0.55238030  0.61701268  1
  O  O87  1  0.90915999  0.76953988  0.39729974  1
  O  O88  1  0.96633170  0.13658236  0.16492455  1
  O  O89  1  0.95983668  0.70867511  0.95473929  1
  O  O90  1  0.97688943  0.57658132  0.26018990  1
  O  O91  1  0.96861341  0.96000046  0.32626600  1
