# generated using pymatgen
data_Mg5(SiN3)2
_symmetry_space_group_name_H-M   'P 1'
_cell_length_a   10.52756761
_cell_length_b   10.52756761
_cell_length_c   5.67542356
_cell_angle_alpha   90.00000000
_cell_angle_beta   90.00000000
_cell_angle_gamma   90.00000000
_symmetry_Int_Tables_number   1
_chemical_formula_structural   Mg5(SiN3)2
_chemical_formula_sum   'Mg20 Si8 N24'
_cell_volume   629.00537579
_cell_formula_units_Z   4
loop_
 _symmetry_equiv_pos_site_id
 _symmetry_equiv_pos_as_xyz
  1  'x, y, z'
loop_
 _atom_site_type_symbol
 _atom_site_label
 _atom_site_symmetry_multiplicity
 _atom_site_fract_x
 _atom_site_fract_y
 _atom_site_fract_z
 _atom_site_occupancy
  Mg  Mg0  1  0.27434326  0.10303341  0.84850870  1
  Mg  Mg1  1  0.22565674  0.60303341  0.84850870  1
  Mg  Mg2  1  0.72565674  0.89696659  0.84850870  1
  Mg  Mg3  1  0.77434326  0.39696659  0.84850870  1
  Mg  Mg4  1  0.89696659  0.27434326  0.15149130  1
  Mg  Mg5  1  0.60303341  0.77434326  0.15149130  1
  Mg  Mg6  1  0.10303341  0.72565674  0.15149130  1
  Mg  Mg7  1  0.39696659  0.22565674  0.15149130  1
  Mg  Mg8  1  0.50000000  0.00000000  -0.00000000  1
  Mg  Mg9  1  -0.00000000  0.50000000  -0.00000000  1
  Mg  Mg10  1  0.40274203  0.39477059  0.67822353  1
  Mg  Mg11  1  0.09725797  0.89477059  0.67822353  1
  Mg  Mg12  1  0.59725797  0.60522941  0.67822353  1
  Mg  Mg13  1  0.90274203  0.10522941  0.67822353  1
  Mg  Mg14  1  0.60522941  0.40274203  0.32177647  1
  Mg  Mg15  1  0.89477059  0.90274203  0.32177647  1
  Mg  Mg16  1  0.39477059  0.59725797  0.32177647  1
  Mg  Mg17  1  0.10522941  0.09725797  0.32177647  1
  Mg  Mg18  1  0.50000000  0.00000000  0.50000000  1
  Mg  Mg19  1  -0.00000000  0.50000000  0.50000000  1
  Si  Si20  1  0.60436117  0.22754708  0.75144274  1
  Si  Si21  1  0.89563883  0.72754708  0.75144274  1
  Si  Si22  1  0.39563883  0.77245292  0.75144274  1
  Si  Si23  1  0.10436117  0.27245292  0.75144274  1
  Si  Si24  1  0.77245292  0.60436117  0.24855726  1
  Si  Si25  1  0.72754708  0.10436117  0.24855726  1
  Si  Si26  1  0.22754708  0.39563883  0.24855726  1
  Si  Si27  1  0.27245292  0.89563883  0.24855726  1
  N  N28  1  0.45504672  0.16714984  0.80873009  1
  N  N29  1  0.04495328  0.66714984  0.80873009  1
  N  N30  1  0.54495328  0.83285016  0.80873009  1
  N  N31  1  0.95504672  0.33285016  0.80873009  1
  N  N32  1  0.83285016  0.45504672  0.19126991  1
  N  N33  1  0.66714984  0.95504672  0.19126991  1
  N  N34  1  0.16714984  0.54495328  0.19126991  1
  N  N35  1  0.33285016  0.04495328  0.19126991  1
  N  N36  1  0.60419150  0.39391467  0.69581819  1
  N  N37  1  0.89580850  0.89391467  0.69581819  1
  N  N38  1  0.39580850  0.60608533  0.69581819  1
  N  N39  1  0.10419150  0.10608533  0.69581819  1
  N  N40  1  0.60608533  0.60419150  0.30418181  1
  N  N41  1  0.89391467  0.10419150  0.30418181  1
  N  N42  1  0.39391467  0.39580850  0.30418181  1
  N  N43  1  0.10608533  0.89580850  0.30418181  1
  N  N44  1  0.20824009  0.29175991  -0.00000000  1
  N  N45  1  0.29175991  0.79175991  -0.00000000  1
  N  N46  1  0.79175991  0.70824009  -0.00000000  1
  N  N47  1  0.70824009  0.20824009  -0.00000000  1
  N  N48  1  0.64595054  0.14595054  0.50000000  1
  N  N49  1  0.85404946  0.64595054  0.50000000  1
  N  N50  1  0.35404946  0.85404946  0.50000000  1
  N  N51  1  0.14595054  0.35404946  0.50000000  1
