# generated using pymatgen
data_CrSi7N10
_symmetry_space_group_name_H-M   'P 1'
_cell_length_a   6.73594878
_cell_length_b   6.90526377
_cell_length_c   9.71030383
_cell_angle_alpha   90.00000000
_cell_angle_beta   104.14477789
_cell_angle_gamma   90.00000000
_symmetry_Int_Tables_number   1
_chemical_formula_structural   CrSi7N10
_chemical_formula_sum   'Cr2 Si14 N20'
_cell_volume   437.96650869
_cell_formula_units_Z   2
loop_
 _symmetry_equiv_pos_site_id
 _symmetry_equiv_pos_as_xyz
  1  'x, y, z'
loop_
 _atom_site_type_symbol
 _atom_site_label
 _atom_site_symmetry_multiplicity
 _atom_site_fract_x
 _atom_site_fract_y
 _atom_site_fract_z
 _atom_site_occupancy
  Cr  Cr0  1  0.92789542  0.92096337  0.65332430  1
  Cr  Cr1  1  0.92789542  0.07903663  0.15332430  1
  Si  Si2  1  0.54494128  0.98030567  0.82710397  1
  Si  Si3  1  0.54494128  0.01969433  0.32710397  1
  Si  Si4  1  0.35493899  0.01953231  0.02415948  1
  Si  Si5  1  0.35493899  0.98046769  0.52415948  1
  Si  Si6  1  0.11713158  0.39871755  0.07446609  1
  Si  Si7  1  0.11713158  0.60128245  0.57446609  1
  Si  Si8  1  0.66020936  0.36566620  0.99081200  1
  Si  Si9  1  0.66020936  0.63433380  0.49081200  1
  Si  Si10  1  0.84888424  0.62075899  0.81098449  1
  Si  Si11  1  0.84888424  0.37924101  0.31098449  1
  Si  Si12  1  0.30018043  0.62360143  0.88420151  1
  Si  Si13  1  0.30018043  0.37639857  0.38420151  1
  Si  Si14  1  0.48503851  0.36985114  0.68844729  1
  Si  Si15  1  0.48503851  0.63014886  0.18844729  1
  N  N16  1  0.74934205  0.84934952  0.80510728  1
  N  N17  1  0.74934205  0.15065048  0.30510728  1
  N  N18  1  0.56880606  0.13304050  0.97722318  1
  N  N19  1  0.56880606  0.86695950  0.47722318  1
  N  N20  1  0.33241355  0.86878760  0.87416117  1
  N  N21  1  0.33241355  0.13121240  0.37416117  1
  N  N22  1  0.15416047  0.15879158  0.04169826  1
  N  N23  1  0.15416047  0.84120842  0.54169826  1
  N  N24  1  0.28945159  0.50800675  0.72513397  1
  N  N25  1  0.28945159  0.49199325  0.22513397  1
  N  N26  1  0.45037455  0.12220045  0.67592475  1
  N  N27  1  0.45037455  0.87779955  0.17592475  1
  N  N28  1  0.88474961  0.37904964  0.13044319  1
  N  N29  1  0.88474961  0.62095036  0.63044319  1
  N  N30  1  0.07738077  0.57315473  0.93758338  1
  N  N31  1  0.07738077  0.42684527  0.43758338  1
  N  N32  1  0.70043511  0.42020392  0.82467490  1
  N  N33  1  0.70043511  0.57979608  0.32467490  1
  N  N34  1  0.49596742  0.53824959  0.02385179  1
  N  N35  1  0.49596742  0.46175041  0.52385179  1
