# generated using pymatgen
data_Cr2O3
_symmetry_space_group_name_H-M   'P 1'
_cell_length_a   9.98691529
_cell_length_b   9.88102427
_cell_length_c   9.75768402
_cell_angle_alpha   86.21903866
_cell_angle_beta   99.61671145
_cell_angle_gamma   90.90813553
_symmetry_Int_Tables_number   1
_chemical_formula_structural   Cr2O3
_chemical_formula_sum   'Cr32 O48'
_cell_volume   947.28850422
_cell_formula_units_Z   16
loop_
 _symmetry_equiv_pos_site_id
 _symmetry_equiv_pos_as_xyz
  1  'x, y, z'
loop_
 _atom_site_type_symbol
 _atom_site_label
 _atom_site_symmetry_multiplicity
 _atom_site_fract_x
 _atom_site_fract_y
 _atom_site_fract_z
 _atom_site_occupancy
  Cr  Cr0  1  0.89586039  0.69938284  0.60137539  1
  Cr  Cr1  1  0.68025363  0.47229365  0.45525450  1
  Cr  Cr2  1  0.13314862  0.30093773  0.86448680  1
  Cr  Cr3  1  0.31174503  0.95241487  0.34955912  1
  Cr  Cr4  1  0.39974296  0.42793945  0.13335146  1
  Cr  Cr5  1  0.79774152  0.99391258  0.20870362  1
  Cr  Cr6  1  0.28727239  0.78012935  0.71281705  1
  Cr  Cr7  1  0.28895029  0.46206331  0.65364004  1
  Cr  Cr8  1  0.32121049  0.58025026  0.41025887  1
  Cr  Cr9  1  0.59298678  0.79101849  0.99658374  1
  Cr  Cr10  1  0.86163986  0.45898939  0.80088955  1
  Cr  Cr11  1  0.96922764  0.33667426  0.13850961  1
  Cr  Cr12  1  0.68918623  0.89681235  0.44367062  1
  Cr  Cr13  1  0.51193573  0.73696625  0.27142695  1
  Cr  Cr14  1  0.11294277  0.98597504  0.81849041  1
  Cr  Cr15  1  0.58613592  0.26425086  0.72681452  1
  Cr  Cr16  1  0.60603520  0.95159142  0.72847647  1
  Cr  Cr17  1  0.89127630  0.77749520  0.95326670  1
  Cr  Cr18  1  0.06976614  0.92074512  0.50433593  1
  Cr  Cr19  1  0.11885457  0.59881479  0.92127100  1
  Cr  Cr20  1  0.25398061  0.77609760  0.08751377  1
  Cr  Cr21  1  0.98318496  0.43937421  0.47510221  1
  Cr  Cr22  1  0.08553354  0.06174295  0.13374280  1
  Cr  Cr23  1  0.67407918  0.29280593  0.04138363  1
  Cr  Cr24  1  0.85598071  0.05375770  0.91302487  1
  Cr  Cr25  1  0.55758177  0.63747016  0.65220302  1
  Cr  Cr26  1  0.75848561  0.59988783  0.19370411  1
  Cr  Cr27  1  0.29937367  0.11030437  0.62209773  1
  Cr  Cr28  1  0.39757041  0.14384388  0.00527219  1
  Cr  Cr29  1  0.21197556  0.26605768  0.35499387  1
  Cr  Cr30  1  0.87764385  0.18559387  0.59886576  1
  Cr  Cr31  1  0.55409798  0.19172381  0.37534093  1
  O  O32  1  0.19192066  0.48259843  0.78788539  1
  O  O33  1  0.48827763  0.09769810  0.66155644  1
  O  O34  1  0.93567902  0.91405276  0.81598164  1
  O  O35  1  0.04658573  0.12669532  0.92565519  1
  O  O36  1  0.73690768  0.65697148  0.99949561  1
  O  O37  1  0.05693979  0.06983743  0.62441973  1
  O  O38  1  0.20554413  0.79995068  0.87911833  1
  O  O39  1  0.69441774  0.79765486  0.21656680  1
  O  O40  1  0.27990180  0.92134039  0.55913769  1
  O  O41  1  0.27510478  0.10726646  0.82283542  1
  O  O42  1  0.57313534  0.54262649  0.22077121  1
  O  O43  1  0.24649097  0.29222113  0.57635961  1
  O  O44  1  0.52362075  0.24611599  0.16908334  1
  O  O45  1  0.11662022  0.03309380  0.33981756  1
  O  O46  1  0.03477737  0.35660616  0.32690354  1
  O  O47  1  0.93789713  0.64612719  0.80271931  1
  O  O48  1  0.31170121  0.31521070  0.98769640  1
  O  O49  1  0.30797863  0.74590918  0.29471484  1
  O  O50  1  0.44483899  0.81352010  0.08468511  1
  O  O51  1  0.47372553  0.44115173  0.70833835  1
  O  O52  1  0.81724534  0.32793428  0.46291265  1
  O  O53  1  0.83434577  0.17219710  0.08168828  1
  O  O54  1  0.16245997  0.52647754  0.49250082  1
  O  O55  1  0.71789013  0.36247588  0.86187496  1
  O  O56  1  0.88158336  0.85942193  0.46802471  1
  O  O57  1  0.32943072  0.41937998  0.30980394  1
  O  O58  1  0.08963833  0.75846574  0.61905962  1
  O  O59  1  0.35721575  0.65316556  0.60468265  1
  O  O60  1  0.01655985  0.41752626  0.95758253  1
  O  O61  1  0.53310091  0.61253518  0.45116231  1
  O  O62  1  0.67523766  0.81169265  0.62431092  1
  O  O63  1  0.74804621  0.12398154  0.72335870  1
  O  O64  1  0.74064431  0.54594362  0.63967285  1
  O  O65  1  0.26228966  0.98611748  0.13174050  1
  O  O66  1  0.50264439  0.90711463  0.36082720  1
  O  O67  1  0.05635199  0.69759861  0.06273888  1
  O  O68  1  0.49127806  0.79412933  0.79678135  1
  O  O69  1  0.55304492  0.17927170  0.91861100  1
  O  O70  1  0.92730751  0.93158594  0.08599320  1
  O  O71  1  0.14700294  0.24164898  0.16055077  1
  O  O72  1  0.79836977  0.41821929  0.15195763  1
  O  O73  1  0.84977791  0.58521803  0.41091673  1
  O  O74  1  0.29062402  0.58341707  0.05152295  1
  O  O75  1  0.71545279  0.07768325  0.37286765  1
  O  O76  1  0.71418562  0.91012653  0.90814717  1
  O  O77  1  0.57686095  0.31527464  0.51749881  1
  O  O78  1  0.96770076  0.33462362  0.70381664  1
  O  O79  1  0.36466094  0.13782004  0.40272981  1
