# generated using pymatgen
data_V2OF5
_symmetry_space_group_name_H-M   'P 1'
_cell_length_a   5.28246571
_cell_length_b   13.50844484
_cell_length_c   5.28122730
_cell_angle_alpha   89.98395279
_cell_angle_beta   59.89082883
_cell_angle_gamma   89.95766063
_symmetry_Int_Tables_number   1
_chemical_formula_structural   V2OF5
_chemical_formula_sum   'V6 O3 F15'
_cell_volume   326.00825649
_cell_formula_units_Z   3
loop_
 _symmetry_equiv_pos_site_id
 _symmetry_equiv_pos_as_xyz
  1  'x, y, z'
loop_
 _atom_site_type_symbol
 _atom_site_label
 _atom_site_symmetry_multiplicity
 _atom_site_fract_x
 _atom_site_fract_y
 _atom_site_fract_z
 _atom_site_occupancy
  V  V0  1  0.00392065  0.00686272  0.96986817  1
  V  V1  1  0.36010488  0.34012299  0.33655437  1
  V  V2  1  0.68198125  0.16608102  0.66526304  1
  V  V3  1  0.98786380  0.49980808  0.01317375  1
  V  V4  1  0.33366577  0.83274439  0.31688496  1
  V  V5  1  0.63884478  0.67338488  0.69194855  1
  O  O6  1  0.42817859  0.74744430  -0.02259393  1
  O  O7  1  0.64289533  0.41427273  0.26361575  1
  O  O8  1  0.92622319  0.08173637  0.76338560  1
  F  F9  1  0.58770813  0.24884611  0.00898866  1
  F  F10  1  0.67549768  0.91539046  0.06902660  1
  F  F11  1  0.73552041  0.58195458  0.92217426  1
  F  F12  1  0.59082692  0.74794034  0.39973096  1
  F  F13  1  0.24463640  0.41437438  0.08866582  1
  F  F14  1  0.75223900  0.08060948  0.33630273  1
  F  F15  1  0.00208409  0.74847439  0.57848379  1
  F  F16  1  0.34310233  0.08083742  0.92473266  1
  F  F17  1  0.06553418  0.41361143  0.67635132  1
  F  F18  1  0.08171537  0.91919862  0.23816846  1
  F  F19  1  0.90588839  0.58630904  0.34623214  1
  F  F20  1  0.40820496  0.24899116  0.59639450  1
  F  F21  1  0.32859596  0.58277027  0.74076973  1
  F  F22  1  0.01298846  0.25249557  0.41395509  1
  F  F23  1  0.26177949  0.91573927  0.66192302  1
