# generated using pymatgen
data_KRuN
_symmetry_space_group_name_H-M   'P 1'
_cell_length_a   5.91623784
_cell_length_b   3.29106438
_cell_length_c   6.76473743
_cell_angle_alpha   90.00000296
_cell_angle_beta   29.03511605
_cell_angle_gamma   73.85088179
_symmetry_Int_Tables_number   1
_chemical_formula_structural   KRuN
_chemical_formula_sum   'K1 Ru1 N1'
_cell_volume   52.38843460
_cell_formula_units_Z   1
loop_
 _symmetry_equiv_pos_site_id
 _symmetry_equiv_pos_as_xyz
  1  'x, y, z'
loop_
 _atom_site_type_symbol
 _atom_site_label
 _atom_site_symmetry_multiplicity
 _atom_site_fract_x
 _atom_site_fract_y
 _atom_site_fract_z
 _atom_site_occupancy
  K  K0  1  0.73705833  0.13147083  0.20375926  1
  Ru  Ru1  1  0.75490768  0.12254566  0.69960410  1
  N  N2  1  0.52603399  0.73698350  0.00563763  1
