# generated using pymatgen
data_KPbN
_symmetry_space_group_name_H-M   'P 1'
_cell_length_a   3.62756496
_cell_length_b   3.62756511
_cell_length_c   6.18850344
_cell_angle_alpha   89.86589235
_cell_angle_beta   89.86589126
_cell_angle_gamma   60.04288899
_symmetry_Int_Tables_number   1
_chemical_formula_structural   KPbN
_chemical_formula_sum   'K1 Pb1 N1'
_cell_volume   70.55578462
_cell_formula_units_Z   1
loop_
 _symmetry_equiv_pos_site_id
 _symmetry_equiv_pos_as_xyz
  1  'x, y, z'
loop_
 _atom_site_type_symbol
 _atom_site_label
 _atom_site_symmetry_multiplicity
 _atom_site_fract_x
 _atom_site_fract_y
 _atom_site_fract_z
 _atom_site_occupancy
  K  K0  1  0.75986691  0.25986691  0.01326904  1
  Pb  Pb1  1  0.42497064  0.92497064  0.48326506  1
  N  N2  1  0.09216245  0.59216245  0.29746690  1
