# generated using pymatgen
data_Si3N4
_symmetry_space_group_name_H-M   'P 1'
_cell_length_a   10.51801968
_cell_length_b   10.83717986
_cell_length_c   10.55776907
_cell_angle_alpha   89.04330864
_cell_angle_beta   87.75024041
_cell_angle_gamma   91.09395400
_symmetry_Int_Tables_number   1
_chemical_formula_structural   Si3N4
_chemical_formula_sum   'Si45 N60'
_cell_volume   1202.10427755
_cell_formula_units_Z   15
loop_
 _symmetry_equiv_pos_site_id
 _symmetry_equiv_pos_as_xyz
  1  'x, y, z'
loop_
 _atom_site_type_symbol
 _atom_site_label
 _atom_site_symmetry_multiplicity
 _atom_site_fract_x
 _atom_site_fract_y
 _atom_site_fract_z
 _atom_site_occupancy
  Si  Si0  1  0.03442036  0.63165783  0.56686016  1
  Si  Si1  1  0.77770182  0.61372658  0.45152390  1
  Si  Si2  1  0.67207318  0.78203113  0.72598885  1
  Si  Si3  1  0.19651090  0.59833019  0.28730696  1
  Si  Si4  1  0.22726299  0.31141507  0.29737588  1
  Si  Si5  1  0.61936484  0.55703437  0.86802216  1
  Si  Si6  1  0.64954337  0.79444205  0.01561834  1
  Si  Si7  1  0.03911229  0.90810121  0.68763262  1
  Si  Si8  1  0.30174713  0.57623547  0.83872192  1
  Si  Si9  1  0.14572456  0.34708748  0.99106764  1
  Si  Si10  1  0.31907441  0.67733167  0.53539119  1
  Si  Si11  1  0.45218873  0.75378141  0.18271474  1
  Si  Si12  1  0.74897725  0.15211095  0.04283936  1
  Si  Si13  1  0.58093975  0.31677813  0.18800711  1
  Si  Si14  1  0.65402319  0.39349880  0.62260159  1
  Si  Si15  1  0.47842527  0.00943979  0.01237931  1
  Si  Si16  1  0.97363241  0.48507415  0.14089282  1
  Si  Si17  1  0.43013507  0.92189988  0.76571630  1
  Si  Si18  1  0.33498069  0.88478517  0.35515840  1
  Si  Si19  1  0.95054889  0.95345934  0.99856567  1
  Si  Si20  1  0.75249002  0.99288440  0.56725108  1
  Si  Si21  1  0.07325627  0.12974894  0.80801034  1
  Si  Si22  1  0.20290286  0.13274803  0.05270651  1
  Si  Si23  1  0.22046108  0.12076026  0.41869814  1
  Si  Si24  1  0.41858026  0.75449321  0.90633450  1
  Si  Si25  1  0.53097481  0.58943376  0.60470841  1
  Si  Si26  1  0.91369917  0.86974052  0.46836622  1
  Si  Si27  1  0.94711194  0.18185707  0.48751832  1
  Si  Si28  1  0.47043118  0.24029966  0.44452059  1
  Si  Si29  1  0.95683499  0.38028203  0.66863460  1
  Si  Si30  1  0.88207392  0.02259250  0.24743322  1
  Si  Si31  1  0.09450680  0.69592716  0.98419085  1
  Si  Si32  1  0.87247037  0.30572370  0.24295376  1
  Si  Si33  1  0.44260076  0.97438951  0.55545020  1
  Si  Si34  1  0.97635422  0.42792423  0.39392405  1
  Si  Si35  1  0.69309014  0.56356178  0.15267897  1
  Si  Si36  1  0.22413715  0.94251301  0.16524741  1
  Si  Si37  1  0.64900234  0.87181462  0.38367415  1
  Si  Si38  1  0.82169793  0.20935431  0.73984494  1
  Si  Si39  1  0.96355844  0.55009068  0.87332588  1
  Si  Si40  1  0.45294670  0.49782378  0.33401674  1
  Si  Si41  1  0.39363088  0.46925499  0.04025289  1
  Si  Si42  1  0.69946147  0.99417020  0.85812226  1
  Si  Si43  1  0.58905058  0.05402006  0.24668322  1
  Si  Si44  1  0.95228544  0.74011629  0.19088788  1
  N  N45  1  0.96886307  0.77177728  0.61329707  1
  N  N46  1  0.57886097  0.73880458  0.61775504  1
  N  N47  1  0.93346493  0.57142421  0.45415174  1
  N  N48  1  0.50155384  0.88811556  0.29436920  1
  N  N49  1  0.74159346  0.27629592  0.14491284  1
  N  N50  1  0.76082886  0.90165830  0.97456352  1
  N  N51  1  0.47923589  0.84092424  0.03666919  1
  N  N52  1  0.56697361  0.28904659  0.55212337  1
  N  N53  1  0.98282760  0.98936805  0.83365153  1
  N  N54  1  0.60321482  0.46546729  0.25881202  1
  N  N55  1  0.00835982  0.43341321  0.98582818  1
  N  N56  1  0.47716286  0.34870001  0.07438978  1
  N  N57  1  0.17633888  0.64505348  0.46127678  1
  N  N58  1  0.53351260  0.00577302  0.85731772  1
  N  N59  1  0.23476956  0.99946823  0.31672366  1
  N  N60  1  0.57048300  0.48778791  0.73274415  1
  N  N61  1  0.70602811  0.50756888  0.99469779  1
  N  N62  1  0.24608226  0.71523950  0.91668289  1
  N  N63  1  0.62363048  0.72424775  0.86991760  1
  N  N64  1  0.10574553  0.99937675  0.07638901  1
  N  N65  1  0.44870747  0.59033043  0.93264233  1
  N  N66  1  0.60234867  0.97452927  0.50345215  1
  N  N67  1  0.01666476  0.52641167  0.70628481  1
  N  N68  1  0.75902064  0.76045065  0.41448085  1
  N  N69  1  0.75279944  0.14473211  0.87528191  1
  N  N70  1  0.79278018  0.35697112  0.69371341  1
  N  N71  1  0.88255525  0.07301548  0.08938674  1
  N  N72  1  0.44297385  0.59516038  0.46189381  1
  N  N73  1  0.28790636  0.79911748  0.22214448  1
  N  N74  1  0.26447123  0.44932153  0.94054067  1
  N  N75  1  0.45443625  0.24869432  0.81501711  1
  N  N76  1  0.59945684  0.08103442  0.08551214  1
  N  N77  1  0.99860224  0.33080790  0.51869481  1
  N  N78  1  0.73987082  0.92369879  0.71742859  1
  N  N79  1  0.18276799  0.00776898  0.73766093  1
  N  N80  1  0.15781011  0.20395285  0.91707761  1
  N  N81  1  0.04156400  0.96702718  0.53605452  1
  N  N82  1  0.54226409  0.19293513  0.30064715  1
  N  N83  1  0.37126019  0.25915168  0.75437596  1
  N  N84  1  0.98256631  0.80147343  0.03997774  1
  N  N85  1  0.72606928  0.97957458  0.28309429  1
  N  N86  1  0.36307915  0.57853960  0.21533471  1
  N  N87  1  0.95541839  0.87285432  0.29440537  1
  N  N88  1  0.91455778  0.16579235  0.32528573  1
  N  N89  1  0.85263681  0.59776783  0.18579909  1
  N  N90  1  0.34597811  0.84185710  0.50979600  1
  N  N91  1  0.07953191  0.09276994  0.51053700  1
  N  N92  1  0.37271381  0.35652421  0.36519446  1
  N  N93  1  0.19311879  0.27311086  0.13612322  1
  N  N94  1  0.34215274  0.61659164  0.68570022  1
  N  N95  1  0.33493196  0.04202679  0.07434022  1
  N  N96  1  0.98314304  0.24482515  0.75522669  1
  N  N97  1  0.29100051  0.00517271  0.77718167  1
  N  N98  1  0.36942569  0.10901178  0.49445571  1
  N  N99  1  0.08502398  0.63213012  0.16398749  1
  N  N100  1  0.80018965  0.55471889  0.88711545  1
  N  N101  1  0.67355424  0.52432023  0.52521620  1
  N  N102  1  0.12786855  0.44446424  0.31155960  1
  N  N103  1  0.61548966  0.70318427  0.15151971  1
  N  N104  1  0.82320430  0.13149250  0.59455536  1
