# generated using pymatgen
data_Ti(GeN)4
_symmetry_space_group_name_H-M   'P 1'
_cell_length_a   5.23406612
_cell_length_b   7.02166572
_cell_length_c   7.80173708
_cell_angle_alpha   78.16136482
_cell_angle_beta   84.37606226
_cell_angle_gamma   63.62697309
_symmetry_Int_Tables_number   1
_chemical_formula_structural   Ti(GeN)4
_chemical_formula_sum   'Ti2 Ge8 N8'
_cell_volume   251.41410458
_cell_formula_units_Z   2
loop_
 _symmetry_equiv_pos_site_id
 _symmetry_equiv_pos_as_xyz
  1  'x, y, z'
loop_
 _atom_site_type_symbol
 _atom_site_label
 _atom_site_symmetry_multiplicity
 _atom_site_fract_x
 _atom_site_fract_y
 _atom_site_fract_z
 _atom_site_occupancy
  Ti  Ti0  1  0.79012864  0.88140532  0.75779631  1
  Ti  Ti1  1  0.20987136  0.11859468  0.24220369  1
  Ge  Ge2  1  0.79601696  0.55886579  0.14022259  1
  Ge  Ge3  1  0.20398304  0.44113421  0.85977741  1
  Ge  Ge4  1  0.72584242  0.19650666  0.94475191  1
  Ge  Ge5  1  0.27415758  0.80349334  0.05524809  1
  Ge  Ge6  1  0.70210730  0.54330266  0.55069603  1
  Ge  Ge7  1  0.29789270  0.45669734  0.44930397  1
  Ge  Ge8  1  0.25819762  0.99455695  0.62662431  1
  Ge  Ge9  1  0.74180238  0.00544305  0.37337569  1
  N  N10  1  0.01314351  0.60182233  0.64157000  1
  N  N11  1  0.98685649  0.39817767  0.35843000  1
  N  N12  1  0.03284964  0.68724122  0.98355244  1
  N  N13  1  0.96715036  0.31275878  0.01644756  1
  N  N14  1  0.48117926  0.82646533  0.83919386  1
  N  N15  1  0.51882074  0.17353467  0.16080614  1
  N  N16  1  0.49750344  0.84834236  0.42198296  1
  N  N17  1  0.50249656  0.15165764  0.57801704  1
