# generated using pymatgen
data_BN
_symmetry_space_group_name_H-M   'P 1'
_cell_length_a   10.37811435
_cell_length_b   10.42218553
_cell_length_c   10.60926575
_cell_angle_alpha   93.63878447
_cell_angle_beta   97.32584649
_cell_angle_gamma   91.03481388
_symmetry_Int_Tables_number   1
_chemical_formula_structural   BN
_chemical_formula_sum   'B50 N50'
_cell_volume   1135.46782775
_cell_formula_units_Z   50
loop_
 _symmetry_equiv_pos_site_id
 _symmetry_equiv_pos_as_xyz
  1  'x, y, z'
loop_
 _atom_site_type_symbol
 _atom_site_label
 _atom_site_symmetry_multiplicity
 _atom_site_fract_x
 _atom_site_fract_y
 _atom_site_fract_z
 _atom_site_occupancy
  B  B0  1  0.38252003  0.28869863  0.40209890  1
  B  B1  1  0.79974328  0.81605017  0.34912378  1
  B  B2  1  0.35895236  0.90109107  0.21052985  1
  B  B3  1  0.93366612  0.83229110  0.18451468  1
  B  B4  1  0.05820170  0.71636743  0.90095563  1
  B  B5  1  0.57966501  0.12991972  0.41716883  1
  B  B6  1  0.45694302  0.51059739  0.42952903  1
  B  B7  1  0.82083675  0.52914775  0.66002759  1
  B  B8  1  0.10766882  0.08243981  0.71754963  1
  B  B9  1  0.45525855  0.49055890  0.79425734  1
  B  B10  1  0.49165425  0.76503618  0.57780382  1
  B  B11  1  0.97166850  0.04926085  0.23070509  1
  B  B12  1  0.64354531  0.64019669  0.70890279  1
  B  B13  1  0.31881494  0.82317501  0.66548988  1
  B  B14  1  0.89750458  0.42954563  0.47502224  1
  B  B15  1  0.60494434  0.82346861  0.82061626  1
  B  B16  1  0.76219664  0.99428905  0.82309701  1
  B  B17  1  0.24309599  0.68969986  0.19724432  1
  B  B18  1  0.24230621  0.24402294  0.57297897  1
  B  B19  1  0.04007587  0.29610450  0.14629804  1
  B  B20  1  0.57609560  0.89840847  0.37906171  1
  B  B21  1  0.74225693  0.21480324  0.88933899  1
  B  B22  1  0.84461699  0.40825010  0.82749697  1
  B  B23  1  0.30551098  0.13782466  0.78304801  1
  B  B24  1  0.53799417  0.06948990  0.85585699  1
  B  B25  1  0.31968987  0.42440580  0.88315349  1
  B  B26  1  0.86251799  0.41148051  0.25504554  1
  B  B27  1  0.14292436  0.98554841  0.51266005  1
  B  B28  1  0.94491702  0.12085481  0.98769902  1
  B  B29  1  0.13219293  0.24919282  0.92327816  1
  B  B30  1  0.35349969  0.90974724  0.44620019  1
  B  B31  1  0.78027710  0.98579586  0.36550703  1
  B  B32  1  0.86692226  0.44572007  0.02521143  1
  B  B33  1  0.58582783  0.32571482  0.88989501  1
  B  B34  1  0.96802614  0.89193449  0.04526218  1
  B  B35  1  0.15592925  0.89135803  0.29674307  1
  B  B36  1  0.26853820  0.44759652  0.24823418  1
  B  B37  1  0.81724068  0.78560131  0.70323284  1
  B  B38  1  0.03093641  0.38455790  0.56281407  1
  B  B39  1  0.54531349  0.50678269  0.67511956  1
  B  B40  1  0.81689335  0.57918250  0.41409701  1
  B  B41  1  0.63885151  0.74662535  0.41535141  1
  B  B42  1  0.16244219  0.25554753  0.31984673  1
  B  B43  1  0.72975711  0.65699331  0.97534119  1
  B  B44  1  0.81109123  0.62724271  0.18493100  1
  B  B45  1  0.37549140  0.00586690  0.98753788  1
  B  B46  1  0.08877527  0.48002429  0.90012333  1
  B  B47  1  0.91342124  0.20711991  0.33164251  1
  B  B48  1  0.24146258  0.64221338  0.80010005  1
  B  B49  1  0.51363192  0.66427882  0.45028415  1
  N  N50  1  0.65746979  0.73463311  0.90938197  1
  N  N51  1  0.19139296  0.38106835  0.91309190  1
  N  N52  1  0.56712581  0.29568718  0.14693925  1
  N  N53  1  0.81163189  0.53881111  0.28257073  1
  N  N54  1  0.39166902  0.86441144  0.57150981  1
  N  N55  1  0.94896184  0.02348877  0.08129401  1
  N  N56  1  0.91698958  0.37919629  0.14103424  1
  N  N57  1  0.23374662  0.82248378  0.21063622  1
  N  N58  1  0.62289652  0.96483801  0.83789315  1
  N  N59  1  0.65333044  0.01702625  0.40692711  1
  N  N60  1  0.26233870  0.75996604  0.74400559  1
  N  N61  1  0.10536893  0.63550353  0.50418929  1
  N  N62  1  0.85932232  0.07900241  0.31413276  1
  N  N63  1  0.74387841  0.35998930  0.90994139  1
  N  N64  1  0.25549855  0.56770993  0.19086143  1
  N  N65  1  0.13451739  0.32547168  0.59650012  1
  N  N66  1  0.52055688  0.47866696  0.54971157  1
  N  N67  1  0.21746787  0.94602249  0.41924383  1
  N  N68  1  0.95207801  0.45299749  0.91716217  1
  N  N69  1  0.78120990  0.65465638  0.68652930  1
  N  N70  1  0.83295417  0.11361761  0.88520854  1
  N  N71  1  0.43279626  0.90670971  0.34244263  1
  N  N72  1  0.18932146  0.64512447  0.44987449  1
  N  N73  1  0.56282209  0.75308667  0.69895207  1
  N  N74  1  0.46853918  0.39644581  0.88938191  1
  N  N75  1  0.00758526  0.81794761  0.94637537  1
  N  N76  1  0.25651043  0.23779699  0.43041319  1
  N  N77  1  0.82002037  0.90397119  0.74363474  1
  N  N78  1  0.02248513  0.91486417  0.26888202  1
  N  N79  1  0.17110644  0.34492197  0.22403621  1
  N  N80  1  0.86971240  0.33496362  0.36722891  1
  N  N81  1  0.37789921  0.95627544  0.09688302  1
  N  N82  1  0.82703028  0.40997036  0.69185031  1
  N  N83  1  0.39663171  0.06336416  0.87525226  1
  N  N84  1  0.32521119  0.18152667  0.66747073  1
  N  N85  1  0.12125506  0.61018257  0.85818539  1
  N  N86  1  0.60358557  0.19234631  0.86680187  1
  N  N87  1  0.37878672  0.41877872  0.34590587  1
  N  N88  1  0.77494259  0.71552110  0.43611683  1
  N  N89  1  0.07574005  0.01271496  0.60638660  1
  N  N90  1  0.67200724  0.01197837  0.09931184  1
  N  N91  1  0.33155773  0.54190625  0.81598567  1
  N  N92  1  0.80177264  0.57743895  0.05396945  1
  N  N93  1  0.83390295  0.76145705  0.22547048  1
  N  N94  1  0.03251578  0.18857856  0.26522441  1
  N  N95  1  0.46974184  0.24759515  0.14497289  1
  N  N96  1  0.16119688  0.14455775  0.82685176  1
  N  N97  1  0.63467428  0.91803535  0.12579831  1
  N  N98  1  0.04523854  0.22293039  0.01317110  1
  N  N99  1  0.49798218  0.21839988  0.42408686  1
