# generated using pymatgen
data_Ge2SeN2
_symmetry_space_group_name_H-M   'P 1'
_cell_length_a   6.36475587
_cell_length_b   5.90307830
_cell_length_c   5.18323656
_cell_angle_alpha   90.00000000
_cell_angle_beta   90.00000000
_cell_angle_gamma   117.62817013
_symmetry_Int_Tables_number   1
_chemical_formula_structural   Ge2SeN2
_chemical_formula_sum   'Ge4 Se2 N4'
_cell_volume   172.53735199
_cell_formula_units_Z   2
loop_
 _symmetry_equiv_pos_site_id
 _symmetry_equiv_pos_as_xyz
  1  'x, y, z'
loop_
 _atom_site_type_symbol
 _atom_site_label
 _atom_site_symmetry_multiplicity
 _atom_site_fract_x
 _atom_site_fract_y
 _atom_site_fract_z
 _atom_site_occupancy
  Ge  Ge0  1  0.36784876  0.03402992  0.83371990  1
  Ge  Ge1  1  0.63215124  0.66618117  0.83371990  1
  Ge  Ge2  1  0.63215124  0.96597008  0.33371990  1
  Ge  Ge3  1  0.36784876  0.33381883  0.33371990  1
  Se  Se4  1  0.00000000  0.71019841  0.67402726  1
  Se  Se5  1  -0.00000000  0.28980159  0.17402726  1
  N  N6  1  0.43729286  0.09055939  0.18126697  1
  N  N7  1  0.56270714  0.65326653  0.18126697  1
  N  N8  1  0.56270714  0.90944061  0.68126697  1
  N  N9  1  0.43729286  0.34673347  0.68126697  1
