# generated using pymatgen
data_Ga2O3
_symmetry_space_group_name_H-M   'P 1'
_cell_length_a   10.18917643
_cell_length_b   10.42809878
_cell_length_c   9.86864273
_cell_angle_alpha   90.09385476
_cell_angle_beta   86.97408438
_cell_angle_gamma   86.12952057
_symmetry_Int_Tables_number   1
_chemical_formula_structural   Ga2O3
_chemical_formula_sum   'Ga32 O48'
_cell_volume   1044.71569648
_cell_formula_units_Z   16
loop_
 _symmetry_equiv_pos_site_id
 _symmetry_equiv_pos_as_xyz
  1  'x, y, z'
loop_
 _atom_site_type_symbol
 _atom_site_label
 _atom_site_symmetry_multiplicity
 _atom_site_fract_x
 _atom_site_fract_y
 _atom_site_fract_z
 _atom_site_occupancy
  Ga  Ga0  1  0.13605528  0.77651668  0.09350536  1
  Ga  Ga1  1  0.89497365  0.17329022  0.69265054  1
  Ga  Ga2  1  0.39623353  0.86637521  0.27640257  1
  Ga  Ga3  1  0.22842358  0.24979185  0.97971706  1
  Ga  Ga4  1  0.36057412  0.69520081  0.80032333  1
  Ga  Ga5  1  0.06516078  0.26336291  0.40762433  1
  Ga  Ga6  1  0.80753537  0.47261454  0.78480881  1
  Ga  Ga7  1  0.91172198  0.77261572  0.38708671  1
  Ga  Ga8  1  0.11235777  0.01433174  0.86757304  1
  Ga  Ga9  1  0.52810196  0.20928563  0.01700955  1
  Ga  Ga10  1  0.58332804  0.12505128  0.68604634  1
  Ga  Ga11  1  0.10161578  0.95468634  0.39805581  1
  Ga  Ga12  1  0.87470293  0.48501110  0.25060721  1
  Ga  Ga13  1  0.40602649  0.58848460  0.53141401  1
  Ga  Ga14  1  0.75494264  0.35097117  0.51327164  1
  Ga  Ga15  1  0.05964589  0.64518243  0.66412455  1
  Ga  Ga16  1  0.25545274  0.14362194  0.66627442  1
  Ga  Ga17  1  0.81680082  0.27440023  0.02291483  1
  Ga  Ga18  1  0.32993800  0.55621798  0.04685237  1
  Ga  Ga19  1  0.87529061  0.71491641  0.91938792  1
  Ga  Ga20  1  0.40687584  0.95126683  0.97376898  1
  Ga  Ga21  1  0.41821953  0.37701793  0.76722762  1
  Ga  Ga22  1  0.14547884  0.56240228  0.34843678  1
  Ga  Ga23  1  0.48669158  0.90009239  0.58151013  1
  Ga  Ga24  1  0.04543483  0.49556863  0.97406766  1
  Ga  Ga25  1  0.59712650  0.69446638  0.01949246  1
  Ga  Ga26  1  0.00174773  0.04206162  0.13682128  1
  Ga  Ga27  1  0.36468054  0.33051024  0.44446793  1
  Ga  Ga28  1  0.75202152  0.99052895  0.95536560  1
  Ga  Ga29  1  0.63972110  0.72883656  0.35369206  1
  Ga  Ga30  1  0.56584797  0.43891976  0.24949189  1
  Ga  Ga31  1  0.81347320  0.88861748  0.63929185  1
  O  O32  1  0.23822605  0.69161552  0.94989214  1
  O  O33  1  0.23817186  0.64029681  0.66830128  1
  O  O34  1  0.64447179  0.31511934  0.08260468  1
  O  O35  1  0.73642397  0.48981352  0.62401156  1
  O  O36  1  0.45780118  0.73144964  0.63354997  1
  O  O37  1  0.57311610  0.03494640  0.98090333  1
  O  O38  1  0.45615460  0.40491323  0.58662088  1
  O  O39  1  0.54073085  0.24816366  0.82302026  1
  O  O40  1  0.99372249  0.51525624  0.79213359  1
  O  O41  1  0.03731241  0.91059449  0.99467521  1
  O  O42  1  0.63034214  0.94708339  0.68248934  1
  O  O43  1  0.08244840  0.15503541  0.99868107  1
  O  O44  1  0.84059375  0.02217589  0.78469718  1
  O  O45  1  0.75477207  0.78416216  0.49230689  1
  O  O46  1  0.75060790  0.82426386  0.00079222  1
  O  O47  1  0.74103944  0.38974647  0.32785757  1
  O  O48  1  0.03250747  0.65429703  0.47355522  1
  O  O49  1  0.29231831  0.98928035  0.82891799  1
  O  O50  1  0.22422167  0.23233919  0.49366853  1
  O  O51  1  0.26543066  0.28122518  0.79038595  1
  O  O52  1  0.28529933  0.49810035  0.43334113  1
  O  O53  1  0.29804214  0.90481201  0.12578244  1
  O  O54  1  0.02264097  0.86544170  0.24959961  1
  O  O55  1  0.92460644  0.76337327  0.74004603  1
  O  O56  1  0.99592892  0.65668584  0.04358716  1
  O  O57  1  0.74208473  0.59102166  0.91995295  1
  O  O58  1  0.83273449  0.10025522  0.07915614  1
  O  O59  1  0.91572770  0.40613791  0.07940934  1
  O  O60  1  0.48084392  0.78703780  0.90750149  1
  O  O61  1  0.84383750  0.29673183  0.83500360  1
  O  O62  1  0.36194126  0.16526114  0.06041028  1
  O  O63  1  0.93676901  0.28369198  0.54381908  1
  O  O64  1  0.50168175  0.54519605  0.10692071  1
  O  O65  1  0.21974902  0.64377966  0.20332956  1
  O  O66  1  0.03969826  0.42290003  0.31863599  1
  O  O67  1  0.52791515  0.88678398  0.40086685  1
  O  O68  1  0.42547274  0.08280224  0.60317991  1
  O  O69  1  0.95280455  0.92425622  0.50622874  1
  O  O70  1  0.08048030  0.09448156  0.70235454  1
  O  O71  1  0.41933917  0.52479418  0.86063400  1
  O  O72  1  0.20362551  0.42298565  0.03192510  1
  O  O73  1  0.81856705  0.65571479  0.27408991  1
  O  O74  1  0.72110517  0.19011342  0.58781906  1
  O  O75  1  0.54075434  0.58425021  0.38918028  1
  O  O76  1  0.46720058  0.30409104  0.29455394  1
  O  O77  1  0.26747090  0.89420604  0.42179745  1
  O  O78  1  0.55605175  0.77832127  0.18709448  1
  O  O79  1  0.05688611  0.11319132  0.30260470  1
