# generated using pymatgen
data_Sb2(CN2)3
_symmetry_space_group_name_H-M   'P 1'
_cell_length_a   10.46701892
_cell_length_b   6.87981256
_cell_length_c   29.05150008
_cell_angle_alpha   89.99999909
_cell_angle_beta   157.69739046
_cell_angle_gamma   70.81360201
_symmetry_Int_Tables_number   1
_chemical_formula_structural   Sb2(CN2)3
_chemical_formula_sum   'Sb4 C6 N12'
_cell_volume   397.00720667
_cell_formula_units_Z   2
loop_
 _symmetry_equiv_pos_site_id
 _symmetry_equiv_pos_as_xyz
  1  'x, y, z'
loop_
 _atom_site_type_symbol
 _atom_site_label
 _atom_site_symmetry_multiplicity
 _atom_site_fract_x
 _atom_site_fract_y
 _atom_site_fract_z
 _atom_site_occupancy
  Sb  Sb0  1  0.99997577  0.00001131  0.16489890  1
  Sb  Sb1  1  0.99997577  0.00001292  0.66489890  1
  Sb  Sb2  1  0.00002455  0.99999345  0.83511917  1
  Sb  Sb3  1  0.00002455  0.99998300  0.33511917  1
  C  C4  1  0.76569879  0.74476062  0.00524752  1
  C  C5  1  0.00002139  0.74471643  0.75001647  1
  C  C6  1  0.23428226  0.51045830  0.49476429  1
  C  C7  1  0.76569879  0.48954159  0.50524752  1
  C  C8  1  0.23428226  0.25525944  0.99476429  1
  C  C9  1  0.00002139  0.25526217  0.25001647  1
  N  N10  1  0.71004588  0.80762772  0.02819119  1
  N  N11  1  0.13297776  0.67464335  0.83582809  1
  N  N12  1  0.15705560  0.51764097  0.51051211  1
  N  N13  1  0.71004588  0.48232640  0.52819119  1
  N  N14  1  0.15705560  0.32530343  0.01051211  1
  N  N15  1  0.13297776  0.19237889  0.33582809  1
  N  N16  1  0.28991863  0.19240276  0.97181480  1
  N  N17  1  0.86706477  0.32534098  0.16420447  1
  N  N18  1  0.84293462  0.48235594  0.48950300  1
  N  N19  1  0.28991863  0.51767861  0.47181480  1
  N  N20  1  0.84293462  0.67470944  0.98950300  1
  N  N21  1  0.86706477  0.80759524  0.66420447  1
