# generated using pymatgen
data_Sr(C4N3)2
_symmetry_space_group_name_H-M   'P 1'
_cell_length_a   14.49809067
_cell_length_b   14.49807559
_cell_length_c   4.21055550
_cell_angle_alpha   89.99879235
_cell_angle_beta   90.00093524
_cell_angle_gamma   119.99948953
_symmetry_Int_Tables_number   1
_chemical_formula_structural   Sr(C4N3)2
_chemical_formula_sum   'Sr3 C24 N18'
_cell_volume   766.46695021
_cell_formula_units_Z   3
loop_
 _symmetry_equiv_pos_site_id
 _symmetry_equiv_pos_as_xyz
  1  'x, y, z'
loop_
 _atom_site_type_symbol
 _atom_site_label
 _atom_site_symmetry_multiplicity
 _atom_site_fract_x
 _atom_site_fract_y
 _atom_site_fract_z
 _atom_site_occupancy
  Sr  Sr0  1  0.00000134  0.99999800  0.37032470  1
  Sr  Sr1  1  0.33333327  0.66665995  0.67898032  1
  Sr  Sr2  1  0.66666631  0.33332949  0.67898087  1
  C  C3  1  0.99999778  0.63023487  0.22901182  1
  C  C4  1  0.63021173  0.99999356  0.22902975  1
  C  C5  1  0.36978874  0.36978470  0.22902740  1
  C  C6  1  0.99999875  0.72580846  0.29595950  1
  C  C7  1  0.72578627  0.99999460  0.29597551  1
  C  C8  1  0.27421660  0.27421326  0.29597869  1
  C  C9  1  0.09771493  0.63293098  0.19587543  1
  C  C10  1  0.53519776  0.90227516  0.19587609  1
  C  C11  1  0.36708761  0.46480242  0.19588480  1
  C  C12  1  0.90228154  0.53521472  0.19587921  1
  C  C13  1  0.63291141  0.09771231  0.19588872  1
  C  C14  1  0.46480284  0.36707920  0.19587176  1
  C  C15  1  0.70508863  0.70508780  0.73992498  1
  C  C16  1  0.00000002  0.29490724  0.73992362  1
  C  C17  1  0.29491340  0.99999918  0.73992518  1
  C  C18  1  0.79814033  0.79814131  0.81994811  1
  C  C19  1  0.00000061  0.20185346  0.81992097  1
  C  C20  1  0.20186230  0.00000121  0.81995514  1
  C  C21  1  0.60931344  0.70553238  0.70086055  1
  C  C22  1  0.09621968  0.39068229  0.70087646  1
  C  C23  1  0.29446881  0.90378084  0.70086888  1
  C  C24  1  0.39068416  0.09621583  0.70085761  1
  C  C25  1  0.70553303  0.60931214  0.70087034  1
  C  C26  1  0.90378036  0.29446419  0.70088316  1
  N  N27  1  0.00000105  0.80496792  0.35249601  1
  N  N28  1  0.80494802  0.00000072  0.35249451  1
  N  N29  1  0.19505625  0.19505718  0.35250323  1
  N  N30  1  0.18114131  0.63854117  0.16979719  1
  N  N31  1  0.45738421  0.81884452  0.16978232  1
  N  N32  1  0.36146710  0.54261364  0.16980153  1
  N  N33  1  0.81885606  0.45739835  0.16980163  1
  N  N34  1  0.63853251  0.18114452  0.16981064  1
  N  N35  1  0.54261351  0.36146037  0.16977595  1
  N  N36  1  0.87692660  0.87692507  0.88476847  1
  N  N37  1  0.00000035  0.12306503  0.88472556  1
  N  N38  1  0.12307913  0.99999808  0.88478321  1
  N  N39  1  0.52823349  0.70349109  0.66808898  1
  N  N40  1  0.17526166  0.47175742  0.66812822  1
  N  N41  1  0.29650599  0.82474071  0.66811049  1
  N  N42  1  0.47176267  0.17525576  0.66808386  1
  N  N43  1  0.70349336  0.52823276  0.66811002  1
  N  N44  1  0.82473711  0.29649712  0.66813964  1
