# generated using pymatgen
data_Al2O3
_symmetry_space_group_name_H-M   'P 1'
_cell_length_a   10.34532155
_cell_length_b   10.36452581
_cell_length_c   10.09534609
_cell_angle_alpha   91.55686955
_cell_angle_beta   94.66860872
_cell_angle_gamma   87.87624381
_symmetry_Int_Tables_number   1
_chemical_formula_structural   Al2O3
_chemical_formula_sum   'Al40 O60'
_cell_volume   1077.81734561
_cell_formula_units_Z   20
loop_
 _symmetry_equiv_pos_site_id
 _symmetry_equiv_pos_as_xyz
  1  'x, y, z'
loop_
 _atom_site_type_symbol
 _atom_site_label
 _atom_site_symmetry_multiplicity
 _atom_site_fract_x
 _atom_site_fract_y
 _atom_site_fract_z
 _atom_site_occupancy
  Al  Al0  1  0.77469934  0.42165344  0.58587267  1
  Al  Al1  1  0.73793014  0.92773470  0.37984641  1
  Al  Al2  1  0.54752962  0.36793694  0.73456262  1
  Al  Al3  1  0.18592714  0.67916197  0.41884885  1
  Al  Al4  1  0.81009144  0.34631728  0.27074896  1
  Al  Al5  1  0.27282767  0.00638588  0.53084505  1
  Al  Al6  1  0.13586586  0.80276727  0.78312643  1
  Al  Al7  1  0.08388912  0.19717478  0.43641418  1
  Al  Al8  1  0.58977857  0.19784493  0.09656908  1
  Al  Al9  1  0.78379859  0.40938543  0.92573152  1
  Al  Al10  1  0.46645812  0.58784597  0.63006230  1
  Al  Al11  1  0.07475649  0.50635758  0.90223423  1
  Al  Al12  1  0.64435149  0.17535018  0.39433659  1
  Al  Al13  1  0.94340456  0.71605255  0.55780246  1
  Al  Al14  1  0.24068691  0.04491713  0.80534854  1
  Al  Al15  1  0.67565267  0.79068084  0.67994671  1
  Al  Al16  1  0.29892452  0.21140203  0.04381231  1
  Al  Al17  1  0.71054715  0.91343236  0.93578470  1
  Al  Al18  1  0.30310362  0.27740602  0.35010115  1
  Al  Al19  1  0.49018910  0.95317491  0.16773500  1
  Al  Al20  1  0.55246976  0.08353539  0.80002095  1
  Al  Al21  1  0.36075184  0.71275140  0.99067356  1
  Al  Al22  1  0.90212189  0.69227784  0.93143438  1
  Al  Al23  1  0.03478018  0.92020265  0.35938892  1
  Al  Al24  1  0.23862648  0.85023637  0.21418643  1
  Al  Al25  1  0.50769664  0.41502036  0.29691064  1
  Al  Al26  1  0.03028192  0.29917318  0.13610507  1
  Al  Al27  1  0.46378672  0.46235772  0.99578052  1
  Al  Al28  1  0.01368770  0.06277661  0.91156762  1
  Al  Al29  1  0.89750093  0.00041038  0.60501176  1
  Al  Al30  1  0.93982826  0.63338087  0.25252154  1
  Al  Al31  1  0.71166575  0.62371865  0.41014822  1
  Al  Al32  1  0.45565025  0.78893985  0.44991973  1
  Al  Al33  1  0.27793352  0.32048917  0.75580341  1
  Al  Al34  1  0.39654682  0.85057439  0.72824797  1
  Al  Al35  1  0.59121523  0.71353763  0.18426264  1
  Al  Al36  1  0.21676903  0.52082091  0.17650899  1
  Al  Al37  1  0.97195604  0.28606054  0.71688730  1
  Al  Al38  1  0.93162643  0.00594595  0.13444231  1
  Al  Al39  1  0.05460368  0.45509719  0.46314145  1
  O  O40  1  0.08948657  0.94223630  0.19520046  1
  O  O41  1  0.21117189  0.25290159  0.18390527  1
  O  O42  1  0.64331856  0.10882176  0.95776984  1
  O  O43  1  0.02915847  0.04374590  0.49269837  1
  O  O44  1  0.52822902  0.36153988  0.12828618  1
  O  O45  1  0.95418993  0.34860934  0.55389225  1
  O  O46  1  0.30272540  0.74319504  0.82527067  1
  O  O47  1  0.21435712  0.86636895  0.40445047  1
  O  O48  1  0.60954559  0.42154872  0.89734834  1
  O  O49  1  0.99788500  0.84012194  0.66920154  1
  O  O50  1  0.24782020  0.16365756  0.67440115  1
  O  O51  1  0.18425042  0.33822950  0.46915625  1
  O  O52  1  0.97779383  0.27340036  0.30363035  1
  O  O53  1  0.43789449  0.11438939  0.11207464  1
  O  O54  1  0.51756487  0.63339618  0.03806584  1
  O  O55  1  0.65412850  0.95004368  0.75975381  1
  O  O56  1  0.46117451  0.80933000  0.27797247  1
  O  O57  1  0.84456822  0.36819025  0.09161068  1
  O  O58  1  0.90961788  0.70100719  0.10257586  1
  O  O59  1  0.22999146  0.91452984  0.67069270  1
  O  O60  1  0.24358045  0.11846977  0.40048389  1
  O  O61  1  0.89732928  0.52273197  0.89084471  1
  O  O62  1  0.29864916  0.55388367  0.01987942  1
  O  O63  1  0.95610830  0.11529459  0.74393778  1
  O  O64  1  0.82325382  0.59132603  0.56405756  1
  O  O65  1  0.17846286  0.16045180  0.92260062  1
  O  O66  1  0.06576498  0.67684766  0.87359615  1
  O  O67  1  0.09579715  0.43866787  0.06226503  1
  O  O68  1  0.35282387  0.66140160  0.50320250  1
  O  O69  1  0.11023093  0.38169658  0.78156741  1
  O  O70  1  0.59013104  0.01287915  0.31866550  1
  O  O71  1  0.38625028  0.45049713  0.70951909  1
  O  O72  1  0.72606312  0.75956439  0.30302803  1
  O  O73  1  0.08376901  0.52695331  0.30573496  1
  O  O74  1  0.87159748  0.96939526  0.28456395  1
  O  O75  1  0.87928318  0.95026312  0.97282941  1
  O  O76  1  0.97696481  0.15063174  0.05903421  1
  O  O77  1  0.71694456  0.34565003  0.42761590  1
  O  O78  1  0.33656097  0.44479551  0.28997325  1
  O  O79  1  0.99317312  0.75425029  0.38609445  1
  O  O80  1  0.70993811  0.20516881  0.23039876  1
  O  O81  1  0.76273039  0.08074588  0.49994277  1
  O  O82  1  0.21819036  0.68643995  0.23725421  1
  O  O83  1  0.60191538  0.71309657  0.51942174  1
  O  O84  1  0.60612326  0.47474269  0.62110146  1
  O  O85  1  0.53042659  0.20927193  0.69550397  1
  O  O86  1  0.80928843  0.33990180  0.75135164  1
  O  O87  1  0.61320676  0.86767766  0.07398186  1
  O  O88  1  0.58201874  0.56583744  0.29788251  1
  O  O89  1  0.79737515  0.85110296  0.54617216  1
  O  O90  1  0.52011828  0.72426411  0.73465624  1
  O  O91  1  0.76546187  0.75777731  0.84163493  1
  O  O92  1  0.09265054  0.60546888  0.55205202  1
  O  O93  1  0.36596372  0.31793198  0.92403973  1
  O  O94  1  0.48204933  0.26416473  0.38007969  1
  O  O95  1  0.83945785  0.52061985  0.32167301  1
  O  O96  1  0.41203088  0.99705565  0.83272078  1
  O  O97  1  0.12924503  0.93971691  0.88744560  1
  O  O98  1  0.33571137  0.86689044  0.07849107  1
  O  O99  1  0.43252847  0.92314235  0.55957973  1
