# generated using pymatgen
data_Al2O3
_symmetry_space_group_name_H-M   'P 1'
_cell_length_a   10.55620637
_cell_length_b   10.39215340
_cell_length_c   10.34260349
_cell_angle_alpha   91.54188487
_cell_angle_beta   89.05824694
_cell_angle_gamma   84.58213674
_symmetry_Int_Tables_number   1
_chemical_formula_structural   Al2O3
_chemical_formula_sum   'Al40 O60'
_cell_volume   1128.91832630
_cell_formula_units_Z   20
loop_
 _symmetry_equiv_pos_site_id
 _symmetry_equiv_pos_as_xyz
  1  'x, y, z'
loop_
 _atom_site_type_symbol
 _atom_site_label
 _atom_site_symmetry_multiplicity
 _atom_site_fract_x
 _atom_site_fract_y
 _atom_site_fract_z
 _atom_site_occupancy
  Al  Al0  1  0.97889442  0.24457384  0.60892100  1
  Al  Al1  1  0.59244016  0.63106629  0.37610803  1
  Al  Al2  1  0.21774473  0.26205436  0.18298180  1
  Al  Al3  1  0.25199342  0.50527318  0.97839428  1
  Al  Al4  1  0.57219759  0.63456169  0.63709493  1
  Al  Al5  1  0.91289830  0.34771001  0.13736949  1
  Al  Al6  1  0.20448097  0.99600658  0.92206188  1
  Al  Al7  1  0.17223649  0.68893070  0.25237691  1
  Al  Al8  1  0.93426639  0.86714001  0.86826747  1
  Al  Al9  1  0.85882340  0.71004123  0.33022856  1
  Al  Al10  1  0.00198287  0.47442528  0.76847247  1
  Al  Al11  1  0.48109284  0.87851814  0.45563370  1
  Al  Al12  1  0.99461600  0.62813928  0.06445573  1
  Al  Al13  1  0.29190744  0.54836932  0.44976214  1
  Al  Al14  1  0.79785950  0.04338807  0.25899850  1
  Al  Al15  1  0.59727355  0.31408466  0.67413758  1
  Al  Al16  1  0.38490626  0.86795000  0.75244238  1
  Al  Al17  1  0.49093456  0.96753622  0.02065773  1
  Al  Al18  1  0.37484600  0.45446171  0.67230492  1
  Al  Al19  1  0.69118720  0.17419517  0.05838896  1
  Al  Al20  1  0.43456516  0.45570179  0.19775148  1
  Al  Al21  1  0.18812146  0.97229781  0.59916452  1
  Al  Al22  1  0.23254457  0.24228569  0.47815348  1
  Al  Al23  1  0.63725465  0.80012937  0.20402599  1
  Al  Al24  1  0.77196198  0.46631756  0.94620135  1
  Al  Al25  1  0.03783410  0.72954732  0.55295326  1
  Al  Al26  1  0.79688027  0.82733016  0.63829293  1
  Al  Al27  1  0.35134424  0.15085800  0.73866434  1
  Al  Al28  1  0.00310763  0.06926708  0.09787589  1
  Al  Al29  1  0.66236030  0.09604417  0.52075228  1
  Al  Al30  1  0.96682104  0.98714489  0.44604604  1
  Al  Al31  1  0.48149344  0.14222588  0.28168357  1
  Al  Al32  1  0.11857450  0.29084344  0.91537230  1
  Al  Al33  1  0.26566821  0.99244036  0.22640736  1
  Al  Al34  1  0.63891538  0.03322863  0.78531951  1
  Al  Al35  1  0.83101387  0.53432262  0.59243960  1
  Al  Al36  1  0.96212484  0.39395042  0.38658317  1
  Al  Al37  1  0.48891004  0.57561668  0.88568002  1
  Al  Al38  1  0.71809952  0.74829806  0.91570661  1
  Al  Al39  1  0.68857004  0.37862206  0.39823053  1
  O  O40  1  0.99776016  0.23417858  0.02323210  1
  O  O41  1  0.58896516  0.08827247  0.95806086  1
  O  O42  1  0.42889523  0.01817415  0.17615671  1
  O  O43  1  0.88394508  0.80570032  0.47869380  1
  O  O44  1  0.75703660  0.89994778  0.83990359  1
  O  O45  1  0.10375726  0.87809148  0.49255483  1
  O  O46  1  0.73560449  0.32682279  0.02543364  1
  O  O47  1  0.06320295  0.35531073  0.23707281  1
  O  O48  1  0.22964826  0.84029319  0.24649251  1
  O  O49  1  0.68075131  0.95800960  0.62051489  1
  O  O50  1  0.29204005  0.39261619  0.52527410  1
  O  O51  1  0.23254108  0.15440010  0.86262454  1
  O  O52  1  0.74073454  0.67781705  0.68788152  1
  O  O53  1  0.04911740  0.30331508  0.75000384  1
  O  O54  1  0.80596600  0.07656659  0.43163495  1
  O  O55  1  0.04029834  0.95804574  0.95687058  1
  O  O56  1  0.39443374  0.29277266  0.22605301  1
  O  O57  1  0.32740828  0.53339434  0.82239850  1
  O  O58  1  0.98000376  0.02825704  0.27079233  1
  O  O59  1  0.43170390  0.28945998  0.71465523  1
  O  O60  1  0.26247478  0.12744323  0.59712719  1
  O  O61  1  0.09480220  0.48005289  0.90370272  1
  O  O62  1  0.41088013  0.58317851  0.56391002  1
  O  O63  1  0.85352851  0.35675861  0.55004265  1
  O  O64  1  0.14762742  0.64276525  0.43695746  1
  O  O65  1  0.60948377  0.83301860  0.03923210  1
  O  O66  1  0.16551375  0.62889390  0.07722483  1
  O  O67  1  0.01160764  0.07798659  0.58928662  1
  O  O68  1  0.99298716  0.70120688  0.22516903  1
  O  O69  1  0.18160294  0.08370389  0.10425877  1
  O  O70  1  0.99838229  0.57995884  0.64108340  1
  O  O71  1  0.83143345  0.07399481  0.08838031  1
  O  O72  1  0.52272465  0.04469288  0.42617013  1
  O  O73  1  0.31269321  0.55661779  0.28050272  1
  O  O74  1  0.56065459  0.47775417  0.73419393  1
  O  O75  1  0.07309361  0.29745341  0.47838451  1
  O  O76  1  0.89197198  0.73086527  0.95931665  1
  O  O77  1  0.89078198  0.50075671  0.06459201  1
  O  O78  1  0.65178706  0.59778062  0.94383937  1
  O  O79  1  0.21303437  0.91703654  0.76090633  1
  O  O80  1  0.71788771  0.65338487  0.26131262  1
  O  O81  1  0.56342889  0.47113032  0.30338047  1
  O  O82  1  0.95906736  0.82558934  0.70398259  1
  O  O83  1  0.61056885  0.27128518  0.50117436  1
  O  O84  1  0.23674141  0.34158381  0.03397000  1
  O  O85  1  0.46941282  0.01762826  0.75585957  1
  O  O86  1  0.25902107  0.14538924  0.33004087  1
  O  O87  1  0.76158543  0.88181543  0.26158948  1
  O  O88  1  0.82708769  0.33978200  0.29174404  1
  O  O89  1  0.67060286  0.52317461  0.50730083  1
  O  O90  1  0.49995821  0.78277305  0.30153722  1
  O  O91  1  0.89908802  0.55884375  0.42109457  1
  O  O92  1  0.42536667  0.51487640  0.03673194  1
  O  O93  1  0.68821682  0.17686654  0.71868599  1
  O  O94  1  0.35898780  0.91056332  0.94453726  1
  O  O95  1  0.58467062  0.74986778  0.51276750  1
  O  O96  1  0.35566811  0.88168824  0.57084818  1
  O  O97  1  0.83776656  0.46484703  0.79004020  1
  O  O98  1  0.64133677  0.15512234  0.22505838  1
  O  O99  1  0.49059194  0.72405353  0.78173218  1
