# generated using pymatgen
data_Si3N4
_symmetry_space_group_name_H-M   'P 1'
_cell_length_a   10.37125765
_cell_length_b   11.09950655
_cell_length_c   10.74710464
_cell_angle_alpha   94.49882370
_cell_angle_beta   87.67125155
_cell_angle_gamma   88.01083979
_symmetry_Int_Tables_number   1
_chemical_formula_structural   Si3N4
_chemical_formula_sum   'Si45 N60'
_cell_volume   1231.43942292
_cell_formula_units_Z   15
loop_
 _symmetry_equiv_pos_site_id
 _symmetry_equiv_pos_as_xyz
  1  'x, y, z'
loop_
 _atom_site_type_symbol
 _atom_site_label
 _atom_site_symmetry_multiplicity
 _atom_site_fract_x
 _atom_site_fract_y
 _atom_site_fract_z
 _atom_site_occupancy
  Si  Si0  1  0.04032648  0.51827971  0.51398767  1
  Si  Si1  1  0.72469896  0.66372442  0.39393426  1
  Si  Si2  1  0.57841995  0.06148544  0.56436507  1
  Si  Si3  1  0.12688007  0.34405926  0.28735667  1
  Si  Si4  1  0.40613218  0.27725831  0.27323126  1
  Si  Si5  1  0.56754702  0.41058400  0.87566169  1
  Si  Si6  1  0.77610211  0.93452201  0.96080069  1
  Si  Si7  1  0.90804764  0.75260737  0.60768513  1
  Si  Si8  1  0.09477147  0.63116116  0.83003685  1
  Si  Si9  1  0.14898236  0.69853635  0.08745926  1
  Si  Si10  1  0.39335535  0.86503542  0.47538832  1
  Si  Si11  1  0.39343128  0.79378836  0.15765506  1
  Si  Si12  1  0.70803592  0.09580155  0.10230375  1
  Si  Si13  1  0.53727512  0.30153780  0.04984934  1
  Si  Si14  1  0.55659216  0.43122992  0.64975844  1
  Si  Si15  1  0.54767388  0.84548301  0.81240756  1
  Si  Si16  1  0.86704249  0.34988050  0.47123521  1
  Si  Si17  1  0.43917246  0.03125658  0.03209636  1
  Si  Si18  1  0.40454298  0.04330614  0.28911290  1
  Si  Si19  1  0.02413081  0.84832543  0.87094718  1
  Si  Si20  1  0.88136868  0.02202339  0.49003204  1
  Si  Si21  1  0.04455654  0.45906004  0.02352551  1
  Si  Si22  1  0.16192368  0.07561989  0.18476873  1
  Si  Si23  1  0.16340918  0.12978914  0.42221272  1
  Si  Si24  1  0.41322350  0.62045848  0.84328375  1
  Si  Si25  1  0.32309196  0.54349344  0.64174246  1
  Si  Si26  1  0.97218878  0.74290272  0.34483439  1
  Si  Si27  1  0.10235081  0.91695903  0.53123343  1
  Si  Si28  1  0.65109056  0.23651077  0.47847152  1
  Si  Si29  1  0.88529646  0.49419649  0.76319440  1
  Si  Si30  1  0.18958344  0.84424842  0.33879282  1
  Si  Si31  1  0.66176568  0.63693792  0.91183866  1
  Si  Si32  1  0.97559262  0.11356778  0.98269306  1
  Si  Si33  1  0.66438038  0.93703282  0.35268273  1
  Si  Si34  1  0.28161971  0.35389022  0.50269455  1
  Si  Si35  1  0.75756147  0.73076648  0.17072058  1
  Si  Si36  1  0.18512999  0.92642467  -0.00120027  1
  Si  Si37  1  0.88774652  0.94655565  0.19867687  1
  Si  Si38  1  0.88805464  0.32945864  0.16224616  1
  Si  Si39  1  0.57872311  0.72069667  0.62060322  1
  Si  Si40  1  0.49033723  0.67393131  0.32800355  1
  Si  Si41  1  0.35642315  0.50507565  0.08758934  1
  Si  Si42  1  0.61338037  0.05457155  0.80019782  1
  Si  Si43  1  0.64921046  0.40749443  0.29852417  1
  Si  Si44  1  0.72232697  0.47695874  0.03834343  1
  N  N45  1  0.99555061  0.66783140  0.48288287  1
  N  N46  1  0.71593397  0.97839081  0.49914787  1
  N  N47  1  0.81005841  0.37030880  0.31257339  1
  N  N48  1  0.63860841  0.77930281  0.29848891  1
  N  N49  1  0.64540187  0.38673167  0.13530244  1
  N  N50  1  0.92352255  0.97404058  0.90167115  1
  N  N51  1  0.51858772  0.72597909  0.90563763  1
  N  N52  1  0.68033364  0.38049656  0.54909973  1
  N  N53  1  0.00255388  0.73452960  0.74439371  1
  N  N54  1  0.60886482  0.55799446  0.35116813  1
  N  N55  1  0.82217944  0.19093409  0.48058982  1
  N  N56  1  0.39446685  0.35452901  0.12701896  1
  N  N57  1  0.28257767  0.37487026  0.34040969  1
  N  N58  1  0.47271780  0.98080920  0.87771403  1
  N  N59  1  0.49228479  0.98708144  0.41762236  1
  N  N60  1  0.40161881  0.40295419  0.60283241  1
  N  N61  1  0.42719148  0.50154213  0.93389181  1
  N  N62  1  0.19819933  0.50285266  0.55409954  1
  N  N63  1  0.49360618  0.59105774  0.68427393  1
  N  N64  1  0.23750049  0.00083097  0.30781943  1
  N  N65  1  0.05247523  0.72453156  0.96556998  1
  N  N66  1  0.90065992  0.89458654  0.34389401  1
  N  N67  1  0.91973631  0.45995068  0.60841027  1
  N  N68  1  0.82229189  0.84073399  0.08726808  1
  N  N69  1  0.84318404  0.18717476  0.08593211  1
  N  N70  1  0.87907537  0.43972284  0.05053299  1
  N  N71  1  0.03825928  0.99270124  0.12262741  1
  N  N72  1  0.48413534  0.73543183  0.49330223  1
  N  N73  1  0.46581523  0.93735450  0.15558707  1
  N  N74  1  0.18874142  0.54473797  0.06214659  1
  N  N75  1  0.05124381  0.22592821  0.71639301  1
  N  N76  1  0.54864542  0.14879187  0.07176041  1
  N  N77  1  0.27203586  0.20325849  0.50431202  1
  N  N78  1  0.94306878  0.90051402  0.59032681  1
  N  N79  1  0.81102356  0.33758600  0.80303805  1
  N  N80  1  0.05934980  0.36017460  0.14448097  1
  N  N81  1  0.27685984  0.05258646  0.73285901  1
  N  N82  1  0.55410261  0.29159794  0.34794585  1
  N  N83  1  0.12336304  0.29668424  0.70440603  1
  N  N84  1  0.70109086  0.89583868  0.82269388  1
  N  N85  1  0.73283257  0.02988157  0.24208871  1
  N  N86  1  0.42429388  0.63292169  0.17370572  1
  N  N87  1  0.10432343  0.74502513  0.24033319  1
  N  N88  1  0.26038447  0.89260654  0.56249480  1
  N  N89  1  0.85104107  0.65822229  0.27884516  1
  N  N90  1  0.35457272  0.79564032  0.32395268  1
  N  N91  1  0.17857487  0.04115359  0.77596717  1
  N  N92  1  0.37653310  0.24573389  0.82290566  1
  N  N93  1  0.26860416  0.05721118  0.05231290  1
  N  N94  1  0.26200198  0.62588893  0.78009314  1
  N  N95  1  0.26799336  0.80210153  0.05933333  1
  N  N96  1  0.02442589  0.49464589  0.85761604  1
  N  N97  1  0.82452376  0.23695637  0.81461821  1
  N  N98  1  0.28961631  0.27465000  0.88456547  1
  N  N99  1  0.02666103  0.39378675  0.41202230  1
  N  N100  1  0.76563075  0.59865364  0.79537302  1
  N  N101  1  0.74180780  0.70587538  0.55484471  1
  N  N102  1  0.11298841  0.19141132  0.28630544  1
  N  N103  1  0.69595720  0.63109028  0.06373688  1
  N  N104  1  0.04693732  0.06082077  0.49764160  1
