# generated using pymatgen
data_Si2SN2
_symmetry_space_group_name_H-M   'P 1'
_cell_length_a   6.82716104
_cell_length_b   7.04201331
_cell_length_c   5.34639928
_cell_angle_alpha   90.00000343
_cell_angle_beta   114.61380856
_cell_angle_gamma   121.04660233
_symmetry_Int_Tables_number   1
_chemical_formula_structural   Si2SN2
_chemical_formula_sum   'Si4 S2 N4'
_cell_volume   192.44368467
_cell_formula_units_Z   2
loop_
 _symmetry_equiv_pos_site_id
 _symmetry_equiv_pos_as_xyz
  1  'x, y, z'
loop_
 _atom_site_type_symbol
 _atom_site_label
 _atom_site_symmetry_multiplicity
 _atom_site_fract_x
 _atom_site_fract_y
 _atom_site_fract_z
 _atom_site_occupancy
  Si  Si0  1  0.04785792  0.18546892  0.93847942  1
  Si  Si1  1  0.04785792  0.86238899  0.93847942  1
  Si  Si2  1  0.57927556  0.95040337  0.00394626  1
  Si  Si3  1  0.57927556  0.62887219  0.00394626  1
  S  S4  1  0.68546578  0.34273239  0.71161276  1
  S  S5  1  0.86383102  0.93191551  0.41789595  1
  N  N6  1  0.32799209  0.92114705  0.00620853  1
  N  N7  1  0.32799209  0.40684504  0.00620853  1
  N  N8  1  0.78952553  0.19159778  0.92061144  1
  N  N9  1  0.78952553  0.59792775  0.92061144  1
