# generated using pymatgen
data_BN
_symmetry_space_group_name_H-M   'P 1'
_cell_length_a   10.94820886
_cell_length_b   10.69649216
_cell_length_c   10.43193576
_cell_angle_alpha   89.99831900
_cell_angle_beta   91.68703146
_cell_angle_gamma   86.36191286
_symmetry_Int_Tables_number   1
_chemical_formula_structural   BN
_chemical_formula_sum   'B50 N50'
_cell_volume   1218.66460171
_cell_formula_units_Z   50
loop_
 _symmetry_equiv_pos_site_id
 _symmetry_equiv_pos_as_xyz
  1  'x, y, z'
loop_
 _atom_site_type_symbol
 _atom_site_label
 _atom_site_symmetry_multiplicity
 _atom_site_fract_x
 _atom_site_fract_y
 _atom_site_fract_z
 _atom_site_occupancy
  B  B0  1  0.66836973  0.87093954  0.44705131  1
  B  B1  1  0.88854849  0.60758685  0.95808542  1
  B  B2  1  0.33024109  0.53555581  0.65209155  1
  B  B3  1  0.34234509  0.48871750  0.16864808  1
  B  B4  1  0.67706914  0.72891945  0.36895444  1
  B  B5  1  0.56860931  0.35366945  0.47123973  1
  B  B6  1  0.73528336  0.17556609  0.21944945  1
  B  B7  1  0.64126883  0.24894846  0.68383366  1
  B  B8  1  0.95139298  0.38463555  0.62069274  1
  B  B9  1  0.86214822  0.94257465  0.69916522  1
  B  B10  1  0.47006429  0.18493187  0.83226087  1
  B  B11  1  0.50118104  0.87485964  0.59840165  1
  B  B12  1  0.91491833  0.76725008  0.54049016  1
  B  B13  1  0.39595661  0.28073525  0.06171055  1
  B  B14  1  0.41425687  0.30901916  0.30397253  1
  B  B15  1  0.05824741  0.57518102  0.63194330  1
  B  B16  1  0.17934010  0.39093749  0.53370671  1
  B  B17  1  0.28096929  0.86557376  0.91606768  1
  B  B18  1  0.34516758  0.70125458  0.27583167  1
  B  B19  1  0.31719551  0.48948603  0.92746620  1
  B  B20  1  0.18866409  0.67241877  0.83018365  1
  B  B21  1  0.98047673  0.08093897  0.86793904  1
  B  B22  1  0.33140866  0.50973444  0.41227942  1
  B  B23  1  0.14483270  0.28637098  0.41823824  1
  B  B24  1  0.35052576  0.77038335  0.72386037  1
  B  B25  1  0.27449061  0.68278295  0.05000533  1
  B  B26  1  0.73917727  0.41470633  0.18940623  1
  B  B27  1  0.04646408  0.22949287  0.04824045  1
  B  B28  1  0.36475210  0.06562398  0.99291893  1
  B  B29  1  0.98023087  0.73956513  0.77024666  1
  B  B30  1  0.81800771  0.81126365  0.41681883  1
  B  B31  1  0.93078122  0.77430557  0.02901888  1
  B  B32  1  0.40812158  0.90826201  0.37171087  1
  B  B33  1  0.80643311  0.64935643  0.19554138  1
  B  B34  1  0.91078789  0.54044415  0.48845087  1
  B  B35  1  0.70710709  0.96729038  0.33951776  1
  B  B36  1  0.09693573  0.31803699  0.26777867  1
  B  B37  1  0.45855578  0.38383491  0.78127874  1
  B  B38  1  0.72402370  0.41641172  0.50986199  1
  B  B39  1  0.53271408  0.08738046  0.61361715  1
  B  B40  1  0.40086742  0.09733906  0.22679649  1
  B  B41  1  0.01954943  0.90983984  0.20316185  1
  B  B42  1  0.88977480  0.40560827  0.82667288  1
  B  B43  1  0.47548875  0.13111393  0.45785019  1
  B  B44  1  0.71767238  0.99675476  0.64597188  1
  B  B45  1  0.37737627  0.71563907  0.50794134  1
  B  B46  1  0.32748099  0.89237589  0.14403648  1
  B  B47  1  0.40989157  0.97874817  0.78107843  1
  B  B48  1  0.09820314  0.05466536  0.36630613  1
  B  B49  1  0.65692930  0.56853536  0.33863914  1
  N  N50  1  0.42684697  0.83667190  0.48944852  1
  N  N51  1  0.18413987  0.18755730  0.71242192  1
  N  N52  1  0.29221254  0.46444074  0.53972085  1
  N  N53  1  0.60824645  0.83982794  0.01308906  1
  N  N54  1  0.42618078  0.04639042  0.35759204  1
  N  N55  1  0.62605064  0.46386711  0.41660698  1
  N  N56  1  0.35445567  0.43267059  0.29692788  1
  N  N57  1  0.08718354  0.64831200  0.73946710  1
  N  N58  1  0.27415128  0.81772957  0.04290574  1
  N  N59  1  0.85563774  0.43268795  0.50869419  1
  N  N60  1  0.25078936  0.78658381  0.80854111  1
  N  N61  1  0.36263701  0.66272333  0.63689138  1
  N  N62  1  0.33829294  0.97936400  0.89307684  1
  N  N63  1  0.65955551  0.91515159  0.97007016  1
  N  N64  1  0.07623691  0.43857809  0.60727988  1
  N  N65  1  0.65174877  0.34072585  0.58601175  1
  N  N66  1  0.03541247  0.15300726  0.95421081  1
  N  N67  1  0.06515215  0.94842124  0.31604495  1
  N  N68  1  0.48375309  0.26537096  0.41998903  1
  N  N69  1  0.90316336  0.33080382  0.72479536  1
  N  N70  1  0.13238565  0.15871481  0.41983441  1
  N  N71  1  0.54610853  0.28979923  0.78433235  1
  N  N72  1  0.21391982  0.10280750  0.65633658  1
  N  N73  1  0.35627882  0.02139802  0.12307734  1
  N  N74  1  0.93737756  0.72381946  0.89774673  1
  N  N75  1  0.46269225  0.08879762  0.73853494  1
  N  N76  1  0.86622197  0.66807478  0.08337462  1
  N  N77  1  0.91979104  0.81551278  0.66714297  1
  N  N78  1  0.40947300  0.22954264  0.19301484  1
  N  N79  1  0.87056430  0.48719748  0.91855426  1
  N  N80  1  0.32045093  0.62308868  0.16494448  1
  N  N81  1  0.36030765  0.41688149  0.04514958  1
  N  N82  1  0.06445607  0.30421370  0.14914478  1
  N  N83  1  0.24000765  0.60221245  0.94122737  1
  N  N84  1  0.41286766  0.18718112  0.95751273  1
  N  N85  1  0.35935727  0.83513967  0.26555608  1
  N  N86  1  0.92804009  0.01272069  0.78416000  1
  N  N87  1  0.73040354  0.53955453  0.22279771  1
  N  N88  1  0.98055623  0.87295250  0.09182953  1
  N  N89  1  0.79387187  0.73772797  0.30322025  1
  N  N90  1  0.61314197  0.60504011  0.82445584  1
  N  N91  1  0.62095224  0.91861877  0.57863777  1
  N  N92  1  0.66398790  0.11927204  0.65846959  1
  N  N93  1  0.43855499  0.86345346  0.71773892  1
  N  N94  1  0.97433014  0.63798917  0.52901129  1
  N  N95  1  0.73109099  0.06138818  0.26326447  1
  N  N96  1  0.73681551  0.29381357  0.18023289  1
  N  N97  1  0.64908289  0.64710467  0.73675318  1
  N  N98  1  0.34978770  0.64082068  0.39904533  1
  N  N99  1  0.35794962  0.46447476  0.78800139  1
