# generated using pymatgen
data_CuGe7N10
_symmetry_space_group_name_H-M   'P 1'
_cell_length_a   6.99857262
_cell_length_b   7.37824086
_cell_length_c   10.26334503
_cell_angle_alpha   90.00000000
_cell_angle_beta   102.83117614
_cell_angle_gamma   90.00000000
_symmetry_Int_Tables_number   1
_chemical_formula_structural   CuGe7N10
_chemical_formula_sum   'Cu2 Ge14 N20'
_cell_volume   516.73587269
_cell_formula_units_Z   2
loop_
 _symmetry_equiv_pos_site_id
 _symmetry_equiv_pos_as_xyz
  1  'x, y, z'
loop_
 _atom_site_type_symbol
 _atom_site_label
 _atom_site_symmetry_multiplicity
 _atom_site_fract_x
 _atom_site_fract_y
 _atom_site_fract_z
 _atom_site_occupancy
  Cu  Cu0  1  0.94944424  0.89697776  0.67288909  1
  Cu  Cu1  1  0.94944424  0.10302224  0.17288909  1
  Ge  Ge2  1  0.54972185  0.98093517  0.82351468  1
  Ge  Ge3  1  0.54972185  0.01906483  0.32351468  1
  Ge  Ge4  1  0.34137491  0.01722692  0.02415438  1
  Ge  Ge5  1  0.34137491  0.98277308  0.52415438  1
  Ge  Ge6  1  0.11744492  0.39600214  0.07316351  1
  Ge  Ge7  1  0.11744492  0.60399786  0.57316351  1
  Ge  Ge8  1  0.65741651  0.35760242  0.99162412  1
  Ge  Ge9  1  0.65741651  0.64239758  0.49162412  1
  Ge  Ge10  1  0.84639269  0.61755371  0.81382197  1
  Ge  Ge11  1  0.84639269  0.38244629  0.31382197  1
  Ge  Ge12  1  0.30435514  0.62696240  0.88182236  1
  Ge  Ge13  1  0.30435514  0.37303760  0.38182236  1
  Ge  Ge14  1  0.48893728  0.36475924  0.68630948  1
  Ge  Ge15  1  0.48893728  0.63524076  0.18630948  1
  N  N16  1  0.76949394  0.85830006  0.79941807  1
  N  N17  1  0.76949394  0.14169994  0.29941807  1
  N  N18  1  0.55467134  0.13197476  0.97250880  1
  N  N19  1  0.55467134  0.86802524  0.47250880  1
  N  N20  1  0.32418886  0.87264259  0.86870938  1
  N  N21  1  0.32418886  0.12735741  0.36870938  1
  N  N22  1  0.12970562  0.14748403  0.04930709  1
  N  N23  1  0.12970562  0.85251597  0.54930709  1
  N  N24  1  0.29312312  0.51235324  0.72171092  1
  N  N25  1  0.29312312  0.48764676  0.22171092  1
  N  N26  1  0.44787028  0.12113072  0.67433317  1
  N  N27  1  0.44787028  0.87886928  0.17433317  1
  N  N28  1  0.88095066  0.37805330  0.13169038  1
  N  N29  1  0.88095066  0.62194670  0.63169038  1
  N  N30  1  0.07833620  0.57414016  0.93994150  1
  N  N31  1  0.07833620  0.42585984  0.43994150  1
  N  N32  1  0.70591453  0.40938005  0.82412208  1
  N  N33  1  0.70591453  0.59061995  0.32412208  1
  N  N34  1  0.50295789  0.54608899  0.02026004  1
  N  N35  1  0.50295789  0.45391101  0.52026004  1
