# generated using pymatgen
data_Al2O3
_symmetry_space_group_name_H-M   'P 1'
_cell_length_a   10.40875592
_cell_length_b   10.31516649
_cell_length_c   10.48306899
_cell_angle_alpha   93.36425124
_cell_angle_beta   91.06724022
_cell_angle_gamma   90.97024243
_symmetry_Int_Tables_number   1
_chemical_formula_structural   Al2O3
_chemical_formula_sum   'Al40 O60'
_cell_volume   1123.22880339
_cell_formula_units_Z   20
loop_
 _symmetry_equiv_pos_site_id
 _symmetry_equiv_pos_as_xyz
  1  'x, y, z'
loop_
 _atom_site_type_symbol
 _atom_site_label
 _atom_site_symmetry_multiplicity
 _atom_site_fract_x
 _atom_site_fract_y
 _atom_site_fract_z
 _atom_site_occupancy
  Al  Al0  1  0.25405134  0.43915210  0.28441137  1
  Al  Al1  1  0.22728997  0.03562945  0.40334328  1
  Al  Al2  1  0.49244317  0.72354761  0.63806738  1
  Al  Al3  1  0.54743713  0.86545788  0.91623101  1
  Al  Al4  1  0.25608853  0.89766757  0.60369299  1
  Al  Al5  1  0.06726197  0.28714910  0.81239065  1
  Al  Al6  1  0.62897332  0.13857107  0.76122156  1
  Al  Al7  1  0.23600205  0.94132803  0.93179596  1
  Al  Al8  1  0.46374147  0.59448436  0.85730092  1
  Al  Al9  1  0.75544411  0.61373099  0.51107847  1
  Al  Al10  1  0.49648473  0.92485270  0.42782738  1
  Al  Al11  1  0.75861614  0.32786822  0.29966471  1
  Al  Al12  1  0.81603387  0.86231207  0.39680145  1
  Al  Al13  1  0.34370894  0.70253791  0.23559777  1
  Al  Al14  1  0.14927288  0.65685996  0.47598168  1
  Al  Al15  1  0.21825166  0.15532955  0.14749039  1
  Al  Al16  1  0.79747359  0.38589002  0.05435979  1
  Al  Al17  1  0.66211395  0.39566122  0.56985442  1
  Al  Al18  1  0.68709445  0.10205249  0.50614599  1
  Al  Al19  1  0.48964060  0.24767456  0.39314863  1
  Al  Al20  1  0.96537280  0.06951764  0.33209833  1
  Al  Al21  1  0.96571925  0.08081102  0.01466162  1
  Al  Al22  1  0.70639817  0.91108023  0.14138893  1
  Al  Al23  1  0.40620512  0.96709451  0.14337893  1
  Al  Al24  1  0.11023317  0.33684102  0.56274867  1
  Al  Al25  1  0.03502323  0.29075108  0.26146534  1
  Al  Al26  1  0.91091029  0.06417727  0.64338669  1
  Al  Al27  1  0.49753861  0.43837731  0.13756878  1
  Al  Al28  1  0.47748413  0.54228504  0.41614706  1
  Al  Al29  1  0.63908971  0.66476025  0.14532554  1
  Al  Al30  1  0.24685003  0.45674027  0.00212256  1
  Al  Al31  1  0.74048038  0.56573477  0.81801256  1
  Al  Al32  1  0.21323715  0.60973048  0.73128845  1
  Al  Al33  1  0.92737380  0.57876545  0.21410804  1
  Al  Al34  1  0.30124791  0.14072970  0.71481492  1
  Al  Al35  1  0.98267409  0.58701062  0.92857893  1
  Al  Al36  1  0.50324738  0.32885089  0.87149465  1
  Al  Al37  1  0.07113551  0.78583691  0.20982919  1
  Al  Al38  1  0.69120315  0.11956638  0.01388969  1
  Al  Al39  1  0.98491556  0.82010454  0.82464375  1
  O  O40  1  0.95842601  0.89961339  0.28266159  1
  O  O41  1  0.30342950  0.07022341  0.03347264  1
  O  O42  1  0.74218938  0.04280138  0.67104177  1
  O  O43  1  0.58382178  0.65316762  0.51038730  1
  O  O44  1  0.39598399  0.35498784  0.00294575  1
  O  O45  1  0.26534786  0.06851225  0.56502030  1
  O  O46  1  0.20981677  0.28802100  0.70866786  1
  O  O47  1  0.75411697  0.52683180  0.65234495  1
  O  O48  1  0.81800229  0.99196253  0.05299925  1
  O  O49  1  0.56194513  0.73510311  0.79728170  1
  O  O50  1  0.45590379  0.19790592  0.76032295  1
  O  O51  1  0.10362597  0.14875009  0.40156360  1
  O  O52  1  0.98413999  0.93568647  0.71051821  1
  O  O53  1  0.50160160  0.39822332  0.50135004  1
  O  O54  1  0.58094021  0.03485927  0.13390394  1
  O  O55  1  0.73165547  0.79217596  0.25254250  1
  O  O56  1  0.66290072  0.93540852  0.43998948  1
  O  O57  1  0.77169653  0.56313681  0.14495062  1
  O  O58  1  0.08967150  0.68090062  0.83335967  1
  O  O59  1  0.41371387  0.36057710  0.28166342  1
  O  O60  1  0.84099629  0.46885609  0.91459046  1
  O  O61  1  0.27223091  0.97675079  0.77226693  1
  O  O62  1  0.29996803  0.55997300  0.88402451  1
  O  O63  1  0.84303542  0.21786298  0.03186328  1
  O  O64  1  0.20119758  0.86880717  0.43017268  1
  O  O65  1  0.18695150  0.74374612  0.62409184  1
  O  O66  1  0.42966472  0.85984933  0.56937093  1
  O  O67  1  0.18198922  0.32323418  0.16090139  1
  O  O68  1  0.08935605  0.43352529  0.92021508  1
  O  O69  1  0.38363677  0.60747361  0.68334737  1
  O  O70  1  0.65691964  0.22016954  0.37799427  1
  O  O71  1  0.57548524  0.47074947  0.80503845  1
  O  O72  1  0.30787872  0.59885522  0.39102427  1
  O  O73  1  0.06682443  0.15961123  0.90813273  1
  O  O74  1  0.63469584  0.79293308  0.03602694  1
  O  O75  1  0.23021386  0.81175511  0.17264887  1
  O  O76  1  0.53249930  0.56932014  0.02647295  1
  O  O77  1  0.12621107  0.51148296  0.60050090  1
  O  O78  1  0.05131431  0.11402369  0.16841456  1
  O  O79  1  0.28351158  0.54608850  0.15381030  1
  O  O80  1  0.39032323  0.85958259  0.98243347  1
  O  O81  1  0.88805758  0.22042448  0.31605293  1
  O  O82  1  0.00404180  0.66184408  0.09116538  1
  O  O83  1  0.64559434  0.25049775  0.90962610  1
  O  O84  1  0.05102981  0.64933744  0.32687056  1
  O  O85  1  0.44873207  0.85006196  0.27292097  1
  O  O86  1  0.74734430  0.45843340  0.42230094  1
  O  O87  1  0.48488402  0.09616287  0.46570985  1
  O  O88  1  0.92767132  0.40804551  0.19602146  1
  O  O89  1  0.86034368  0.73530112  0.48747219  1
  O  O90  1  0.13118542  0.38346634  0.39085277  1
  O  O91  1  0.85466128  0.70018409  0.85319162  1
  O  O92  1  0.51705005  0.59241141  0.25780471  1
  O  O93  1  0.87359102  0.03360619  0.47229090  1
  O  O94  1  0.65383313  0.34889330  0.15662052  1
  O  O95  1  0.06384545  0.91628103  0.96197130  1
  O  O96  1  0.97982649  0.24179431  0.65622121  1
  O  O97  1  0.66886277  0.24515779  0.62795401  1
  O  O98  1  0.31846520  0.08321163  0.26811596  1
  O  O99  1  0.61244092  0.01457754  0.87897152  1
