# generated using pymatgen
data_MgAuN
_symmetry_space_group_name_H-M   'P 1'
_cell_length_a   10.14925306
_cell_length_b   3.21502818
_cell_length_c   5.36037564
_cell_angle_alpha   90.00000000
_cell_angle_beta   90.00000000
_cell_angle_gamma   90.00000000
_symmetry_Int_Tables_number   1
_chemical_formula_structural   MgAuN
_chemical_formula_sum   'Mg4 Au4 N4'
_cell_volume   174.90977861
_cell_formula_units_Z   4
loop_
 _symmetry_equiv_pos_site_id
 _symmetry_equiv_pos_as_xyz
  1  'x, y, z'
loop_
 _atom_site_type_symbol
 _atom_site_label
 _atom_site_symmetry_multiplicity
 _atom_site_fract_x
 _atom_site_fract_y
 _atom_site_fract_z
 _atom_site_occupancy
  Mg  Mg0  1  0.67351401  0.25000000  0.36965276  1
  Mg  Mg1  1  0.17351401  0.25000000  0.13034724  1
  Mg  Mg2  1  0.32648599  0.75000000  0.63034724  1
  Mg  Mg3  1  0.82648599  0.75000000  0.86965276  1
  Au  Au4  1  0.56313953  0.25000000  0.84742470  1
  Au  Au5  1  0.06313953  0.25000000  0.65257530  1
  Au  Au6  1  0.43686047  0.75000000  0.15257530  1
  Au  Au7  1  0.93686047  0.75000000  0.34742470  1
  N  N8  1  0.83481812  0.25000000  0.12543777  1
  N  N9  1  0.33481812  0.25000000  0.37456223  1
  N  N10  1  0.16518188  0.75000000  0.87456223  1
  N  N11  1  0.66518188  0.75000000  0.62543777  1
