# generated using pymatgen
data_Al2O3
_symmetry_space_group_name_H-M   'P 1'
_cell_length_a   10.55428620
_cell_length_b   10.15682272
_cell_length_c   10.46520685
_cell_angle_alpha   94.02333634
_cell_angle_beta   95.11472230
_cell_angle_gamma   89.79879218
_symmetry_Int_Tables_number   1
_chemical_formula_structural   Al2O3
_chemical_formula_sum   'Al40 O60'
_cell_volume   1114.62442359
_cell_formula_units_Z   20
loop_
 _symmetry_equiv_pos_site_id
 _symmetry_equiv_pos_as_xyz
  1  'x, y, z'
loop_
 _atom_site_type_symbol
 _atom_site_label
 _atom_site_symmetry_multiplicity
 _atom_site_fract_x
 _atom_site_fract_y
 _atom_site_fract_z
 _atom_site_occupancy
  Al  Al0  1  0.55886084  0.14208929  0.76425651  1
  Al  Al1  1  0.66289634  0.07018266  0.53061613  1
  Al  Al2  1  0.29981626  0.40525169  0.82747331  1
  Al  Al3  1  0.08061597  0.22940639  0.35853700  1
  Al  Al4  1  0.89579709  0.19744732  0.13933947  1
  Al  Al5  1  0.27580605  0.71589576  0.21074982  1
  Al  Al6  1  0.16336997  0.00823675  0.58263314  1
  Al  Al7  1  0.07251721  0.30673789  0.62444305  1
  Al  Al8  1  0.43282363  0.18600617  0.98723909  1
  Al  Al9  1  0.68398181  0.36442460  0.00296101  1
  Al  Al10  1  0.48741634  0.48220258  0.64060132  1
  Al  Al11  1  0.38936719  0.85825301  0.79456035  1
  Al  Al12  1  0.43061744  0.93243989  0.53730040  1
  Al  Al13  1  0.85923879  0.93242016  0.64000434  1
  Al  Al14  1  0.48577152  0.10773471  0.26919821  1
  Al  Al15  1  0.69947597  0.88745734  0.82241267  1
  Al  Al16  1  0.18026471  0.28764649  0.15221079  1
  Al  Al17  1  0.62030580  0.85685299  0.30048070  1
  Al  Al18  1  0.21346204  0.99811073  0.31466863  1
  Al  Al19  1  0.53123847  0.91499556  0.01233337  1
  Al  Al20  1  0.95756689  0.04026580  0.93749121  1
  Al  Al21  1  0.44575450  0.60169998  0.95880411  1
  Al  Al22  1  0.82257471  0.88347718  0.11814206  1
  Al  Al23  1  0.98714021  0.69401119  0.21685014  1
  Al  Al24  1  0.24258527  0.92505658  0.01229066  1
  Al  Al25  1  0.34669422  0.21611234  0.51169833  1
  Al  Al26  1  0.06463532  0.58785507  0.71000382  1
  Al  Al27  1  0.53562870  0.55932469  0.20720355  1
  Al  Al28  1  0.97382161  0.34576416  0.90278576  1
  Al  Al29  1  0.12893778  0.85009317  0.77391609  1
  Al  Al30  1  0.90415907  0.65967806  0.91265421  1
  Al  Al31  1  0.59546411  0.35385282  0.42157719  1
  Al  Al32  1  0.31830820  0.47434076  0.36678663  1
  Al  Al33  1  0.28815418  0.70481999  0.53677685  1
  Al  Al34  1  0.77106137  0.62407817  0.66217831  1
  Al  Al35  1  0.77899959  0.61789937  0.39105704  1
  Al  Al36  1  0.16007405  0.50631595  0.04586459  1
  Al  Al37  1  0.78731713  0.35709182  0.71175797  1
  Al  Al38  1  0.91280312  0.99938147  0.36088808  1
  Al  Al39  1  0.88627598  0.38550299  0.31729290  1
  O  O40  1  0.99402192  0.85136925  0.29464935  1
  O  O41  1  0.16001994  0.13328225  0.21299643  1
  O  O42  1  0.59207595  0.22035346  0.93112633  1
  O  O43  1  0.00049622  0.34286102  0.47020948  1
  O  O44  1  0.77703755  0.32900943  0.14902429  1
  O  O45  1  0.95236774  0.27958420  0.73270954  1
  O  O46  1  0.49359239  0.76070998  0.91668894  1
  O  O47  1  0.08678762  0.05897338  0.42101557  1
  O  O48  1  0.57492692  0.49846769  0.04966750  1
  O  O49  1  0.10737966  0.97998398  0.92195694  1
  O  O50  1  0.20297189  0.18852960  0.60514166  1
  O  O51  1  0.91143241  0.57281336  0.30307963  1
  O  O52  1  0.89929838  0.16779990  0.30620725  1
  O  O53  1  0.38377779  0.01283359  0.98861207  1
  O  O54  1  0.76715737  0.91843173  0.27042797  1
  O  O55  1  0.85820321  0.95924420  0.81776603  1
  O  O56  1  0.26120545  0.79551796  0.88972772  1
  O  O57  1  0.78441427  0.40226175  0.88032294  1
  O  O58  1  0.69663117  0.90210436  0.00014692  1
  O  O59  1  0.42603630  0.79035071  0.63250306  1
  O  O60  1  0.25169192  0.88601498  0.18026468  1
  O  O61  1  0.90352971  0.51703591  0.68151901  1
  O  O62  1  0.49013945  0.45815103  0.32682126  1
  O  O63  1  0.92241526  0.20703914  0.97283957  1
  O  O64  1  0.02842294  0.93251995  0.64486794  1
  O  O65  1  0.43764568  0.21899107  0.15280021  1
  O  O66  1  0.25978874  0.95279686  0.71869851  1
  O  O67  1  0.00292622  0.51782825  0.94738789  1
  O  O68  1  0.36305937  0.54445900  0.54084365  1
  O  O69  1  0.15840984  0.69757505  0.63375486  1
  O  O70  1  0.41800891  0.66678810  0.14220443  1
  O  O71  1  0.27602746  0.65642527  0.36366395  1
  O  O72  1  0.80076238  0.71900771  0.53452453  1
  O  O73  1  0.25304139  0.44318318  0.19389474  1
  O  O74  1  0.82902745  0.02852320  0.50385548  1
  O  O75  1  0.91484857  0.01857302  0.09487507  1
  O  O76  1  0.15954588  0.43770235  0.72009261  1
  O  O77  1  0.48008568  0.33046904  0.54168584  1
  O  O78  1  0.24319841  0.32104130  0.40620619  1
  O  O79  1  0.88161602  0.72395922  0.07271043  1
  O  O80  1  0.61168104  0.17831108  0.38718428  1
  O  O81  1  0.68578634  0.20846768  0.67090589  1
  O  O82  1  0.12663249  0.65563968  0.13929425  1
  O  O83  1  0.74367820  0.44035658  0.39990985  1
  O  O84  1  0.35783175  0.24761406  0.84868897  1
  O  O85  1  0.46189671  0.09541174  0.61234225  1
  O  O86  1  0.65931384  0.48968072  0.63922321  1
  O  O87  1  0.52665678  0.94797666  0.18623717  1
  O  O88  1  0.64557252  0.67996974  0.29235372  1
  O  O89  1  0.68676327  0.93617222  0.65464895  1
  O  O90  1  0.75882547  0.71149214  0.81294180  1
  O  O91  1  0.01679796  0.72390326  0.81568311  1
  O  O92  1  0.26539256  0.89962021  0.46900543  1
  O  O93  1  0.44536578  0.49586248  0.79836260  1
  O  O94  1  0.36118761  0.09140571  0.37453343  1
  O  O95  1  0.02132769  0.33266643  0.21645104  1
  O  O96  1  0.53909398  0.97622616  0.82879768  1
  O  O97  1  0.14036125  0.32714623  0.98819515  1
  O  O98  1  0.28851820  0.53023197  0.95304629  1
  O  O99  1  0.55944172  0.92836730  0.43765964  1
