# generated using pymatgen
data_Bi(C2N3)3
_symmetry_space_group_name_H-M   'P 1'
_cell_length_a   7.23697215
_cell_length_b   12.24830497
_cell_length_c   11.01918191
_cell_angle_alpha   90.00000000
_cell_angle_beta   90.00000000
_cell_angle_gamma   32.19590241
_symmetry_Int_Tables_number   1
_chemical_formula_structural   Bi(C2N3)3
_chemical_formula_sum   'Bi2 C12 N18'
_cell_volume   520.42638396
_cell_formula_units_Z   2
loop_
 _symmetry_equiv_pos_site_id
 _symmetry_equiv_pos_as_xyz
  1  'x, y, z'
loop_
 _atom_site_type_symbol
 _atom_site_label
 _atom_site_symmetry_multiplicity
 _atom_site_fract_x
 _atom_site_fract_y
 _atom_site_fract_z
 _atom_site_occupancy
  Bi  Bi0  1  0.00000000  0.28619049  0.25000000  1
  Bi  Bi1  1  1.00000000  0.71380951  0.75000000  1
  C  C2  1  0.70333575  0.74510255  0.25000000  1
  C  C3  1  0.70333575  0.55156170  0.75000000  1
  C  C4  1  0.29666425  0.25489745  0.75000000  1
  C  C5  1  0.29666425  0.44843830  0.25000000  1
  C  C6  1  0.70186774  0.29288624  0.93323260  1
  C  C7  1  0.70186774  0.00524502  0.06676740  1
  C  C8  1  0.70186774  0.29288624  0.56676740  1
  C  C9  1  0.70186774  0.00524502  0.43323260  1
  C  C10  1  0.29813226  0.70711376  0.06676740  1
  C  C11  1  0.29813226  0.99475498  0.93323260  1
  C  C12  1  0.29813226  0.70711376  0.43323260  1
  C  C13  1  0.29813226  0.99475498  0.56676740  1
  N  N14  1  0.00000000  0.54775461  0.25000000  1
  N  N15  1  1.00000000  0.45224539  0.75000000  1
  N  N16  1  0.41977852  0.92319437  0.25000000  1
  N  N17  1  0.41977852  0.65702611  0.75000000  1
  N  N18  1  0.58022148  0.07680563  0.75000000  1
  N  N19  1  0.58022148  0.34297389  0.25000000  1
  N  N20  1  1.00000000  0.15190032  0.98555260  1
  N  N21  1  0.00000000  0.84809968  0.01444740  1
  N  N22  1  1.00000000  0.15190032  0.51444740  1
  N  N23  1  0.00000000  0.84809968  0.48555260  1
  N  N24  1  0.41538323  0.42952027  0.89609593  1
  N  N25  1  0.41538323  0.15509549  0.10390407  1
  N  N26  1  0.41538323  0.42952027  0.60390407  1
  N  N27  1  0.41538323  0.15509549  0.39609593  1
  N  N28  1  0.58461677  0.57047973  0.10390407  1
  N  N29  1  0.58461677  0.84490451  0.89609593  1
  N  N30  1  0.58461677  0.57047973  0.39609593  1
  N  N31  1  0.58461677  0.84490451  0.60390407  1
