# generated using pymatgen
data_Mg3(GaN2)2
_symmetry_space_group_name_H-M   'P 1'
_cell_length_a   5.32714064
_cell_length_b   10.35095377
_cell_length_c   8.29088218
_cell_angle_alpha   90.00000000
_cell_angle_beta   90.00000000
_cell_angle_gamma   90.00000000
_symmetry_Int_Tables_number   1
_chemical_formula_structural   Mg3(GaN2)2
_chemical_formula_sum   'Mg12 Ga8 N16'
_cell_volume   457.16742229
_cell_formula_units_Z   4
loop_
 _symmetry_equiv_pos_site_id
 _symmetry_equiv_pos_as_xyz
  1  'x, y, z'
loop_
 _atom_site_type_symbol
 _atom_site_label
 _atom_site_symmetry_multiplicity
 _atom_site_fract_x
 _atom_site_fract_y
 _atom_site_fract_z
 _atom_site_occupancy
  Mg  Mg0  1  0.66436349  0.17119432  0.39099419  1
  Mg  Mg1  1  0.83563651  0.82880568  0.39099419  1
  Mg  Mg2  1  0.66436349  0.32880568  0.10900581  1
  Mg  Mg3  1  0.83563651  0.67119432  0.10900581  1
  Mg  Mg4  1  0.33563651  0.82880568  0.60900581  1
  Mg  Mg5  1  0.16436349  0.17119432  0.60900581  1
  Mg  Mg6  1  0.33563651  0.67119432  0.89099419  1
  Mg  Mg7  1  0.16436349  0.32880568  0.89099419  1
  Mg  Mg8  1  0.75000000  0.50000000  0.44609948  1
  Mg  Mg9  1  0.75000000  -0.00000000  0.05390052  1
  Mg  Mg10  1  0.25000000  0.50000000  0.55390052  1
  Mg  Mg11  1  0.25000000  -0.00000000  0.94609948  1
  Ga  Ga12  1  0.75000000  0.50000000  0.79157501  1
  Ga  Ga13  1  0.75000000  -0.00000000  0.70842499  1
  Ga  Ga14  1  0.25000000  0.50000000  0.20842499  1
  Ga  Ga15  1  0.25000000  -0.00000000  0.29157501  1
  Ga  Ga16  1  0.71062841  0.25000000  0.75000000  1
  Ga  Ga17  1  0.78937159  0.75000000  0.75000000  1
  Ga  Ga18  1  0.28937159  0.75000000  0.25000000  1
  Ga  Ga19  1  0.21062841  0.25000000  0.25000000  1
  N  N20  1  0.97061265  0.37985142  0.65356290  1
  N  N21  1  0.52938735  0.62014858  0.65356290  1
  N  N22  1  0.97061265  0.12014858  0.84643710  1
  N  N23  1  0.52938735  0.87985142  0.84643710  1
  N  N24  1  0.02938735  0.62014858  0.34643710  1
  N  N25  1  0.47061265  0.37985142  0.34643710  1
  N  N26  1  0.02938735  0.87985142  0.15356290  1
  N  N27  1  0.47061265  0.12014858  0.15356290  1
  N  N28  1  0.53739622  0.36910873  0.88358468  1
  N  N29  1  0.96260378  0.63089127  0.88358468  1
  N  N30  1  0.53739622  0.13089127  0.61641532  1
  N  N31  1  0.96260378  0.86910873  0.61641532  1
  N  N32  1  0.46260378  0.63089127  0.11641532  1
  N  N33  1  0.03739622  0.36910873  0.11641532  1
  N  N34  1  0.46260378  0.86910873  0.38358468  1
  N  N35  1  0.03739622  0.13089127  0.38358468  1
