# generated using pymatgen
data_BN
_symmetry_space_group_name_H-M   'P 1'
_cell_length_a   11.32700337
_cell_length_b   10.98177344
_cell_length_c   10.55421763
_cell_angle_alpha   90.07016086
_cell_angle_beta   86.11556239
_cell_angle_gamma   87.34909384
_symmetry_Int_Tables_number   1
_chemical_formula_structural   BN
_chemical_formula_sum   'B50 N50'
_cell_volume   1308.41513041
_cell_formula_units_Z   50
loop_
 _symmetry_equiv_pos_site_id
 _symmetry_equiv_pos_as_xyz
  1  'x, y, z'
loop_
 _atom_site_type_symbol
 _atom_site_label
 _atom_site_symmetry_multiplicity
 _atom_site_fract_x
 _atom_site_fract_y
 _atom_site_fract_z
 _atom_site_occupancy
  B  B0  1  0.79799127  0.99034983  0.64737440  1
  B  B1  1  0.96027436  0.83901270  0.00268866  1
  B  B2  1  0.26043730  0.56220403  0.53748567  1
  B  B3  1  0.37208974  0.44018745  0.09665891  1
  B  B4  1  0.80490827  0.97579075  0.42105194  1
  B  B5  1  0.58423732  0.27691707  0.51388009  1
  B  B6  1  0.93953734  0.16652844  0.65840174  1
  B  B7  1  0.60247667  0.52801893  0.61727408  1
  B  B8  1  0.05527513  0.35658680  0.73045209  1
  B  B9  1  0.69497807  0.93354333  0.75480034  1
  B  B10  1  0.33257727  0.21009905  0.75739657  1
  B  B11  1  0.42796578  0.88927996  0.49626427  1
  B  B12  1  0.03324984  0.85578947  0.77243679  1
  B  B13  1  0.35793202  0.23240129  0.99901601  1
  B  B14  1  0.35712358  0.25527593  0.24727745  1
  B  B15  1  0.99735830  0.45584285  0.84589237  1
  B  B16  1  0.22955811  0.98787905  0.47873092  1
  B  B17  1  0.33662004  0.81870662  0.81585120  1
  B  B18  1  0.39518623  0.65428241  0.17533387  1
  B  B19  1  0.32710278  0.41868971  0.86740647  1
  B  B20  1  0.26885682  0.61035503  0.75061863  1
  B  B21  1  0.01291299  0.96649373  0.08164420  1
  B  B22  1  0.35116129  0.48223678  0.32847005  1
  B  B23  1  0.31414044  0.06010336  0.36407913  1
  B  B24  1  0.27564809  0.78120536  0.60041608  1
  B  B25  1  0.35616325  0.62845435  0.95465073  1
  B  B26  1  0.92278829  0.36809615  0.34667153  1
  B  B27  1  0.99400980  0.00745944  0.24010024  1
  B  B28  1  0.36785428  0.02482891  0.89704871  1
  B  B29  1  0.07894614  0.03088089  0.87174395  1
  B  B30  1  0.95242550  0.72710785  0.60591708  1
  B  B31  1  0.85393227  0.72384082  0.16292693  1
  B  B32  1  0.40516809  0.86350358  0.26565254  1
  B  B33  1  0.92346139  0.60151788  0.38115580  1
  B  B34  1  0.91956007  0.78193134  0.37497311  1
  B  B35  1  0.02860668  0.96583112  0.61716155  1
  B  B36  1  0.80693067  0.59105777  0.68843436  1
  B  B37  1  0.19745996  0.40444637  0.69996936  1
  B  B38  1  0.77580115  0.21156224  0.40640049  1
  B  B39  1  0.37390508  0.20451962  0.50944974  1
  B  B40  1  0.36865875  0.04891745  0.13401869  1
  B  B41  1  0.03847695  0.98317865  0.38062475  1
  B  B42  1  0.95322176  0.66183812  0.84029523  1
  B  B43  1  0.42655064  0.42641773  0.52245988  1
  B  B44  1  0.62019558  0.93965662  0.61564978  1
  B  B45  1  0.36634453  0.70021673  0.39869428  1
  B  B46  1  0.38393151  0.84036740  0.03701766  1
  B  B47  1  0.37539541  0.99653346  0.65676759  1
  B  B48  1  0.90058259  0.12524824  0.29178810  1
  B  B49  1  0.75515159  0.82931754  0.96868283  1
  N  N50  1  0.43456458  0.81037439  0.38565902  1
  N  N51  1  0.08315238  0.33294816  0.15328287  1
  N  N52  1  0.90778661  0.65041120  0.71081266  1
  N  N53  1  0.65879038  0.02014021  0.13226690  1
  N  N54  1  0.36767329  0.99074201  0.25669462  1
  N  N55  1  0.78953423  0.08712991  0.35821920  1
  N  N56  1  0.36519619  0.38896831  0.22787269  1
  N  N57  1  0.21255506  0.53418936  0.66312502  1
  N  N58  1  0.36188896  0.76024013  0.93457421  1
  N  N59  1  0.73674862  0.94499019  0.53993974  1
  N  N60  1  0.28315588  0.74035529  0.72682713  1
  N  N61  1  0.27839780  0.68857226  0.50229163  1
  N  N62  1  0.36082377  0.94594605  0.78962119  1
  N  N63  1  0.62347543  0.11411210  0.15641990  1
  N  N64  1  0.98975391  0.26430309  0.68832783  1
  N  N65  1  0.69820526  0.26629862  0.49737011  1
  N  N66  1  0.06742573  0.04987483  0.99454851  1
  N  N67  1  0.10185845  0.98996584  0.49214535  1
  N  N68  1  0.46462936  0.29740584  0.51885584  1
  N  N69  1  0.70661860  0.55227047  0.66216818  1
  N  N70  1  0.33917052  0.18850189  0.37549970  1
  N  N71  1  0.29446270  0.34135625  0.76198819  1
  N  N72  1  0.09403743  0.33374834  0.04777278  1
  N  N73  1  0.37871075  0.97220285  0.02229893  1
  N  N74  1  0.83569996  0.78504788  0.05550595  1
  N  N75  1  0.34768633  0.13822865  0.63631029  1
  N  N76  1  0.89498076  0.69206435  0.27329467  1
  N  N77  1  0.08133336  0.97655379  0.75588955  1
  N  N78  1  0.35835626  0.18130815  0.12855011  1
  N  N79  1  0.96195700  0.55276713  0.91116247  1
  N  N80  1  0.38430013  0.57093461  0.07309402  1
  N  N81  1  0.36004972  0.36370699  0.98616963  1
  N  N82  1  0.93996961  0.47875645  0.37714451  1
  N  N83  1  0.31484501  0.55121414  0.85904468  1
  N  N84  1  0.35688427  0.15703843  0.88331881  1
  N  N85  1  0.40373257  0.78464833  0.15723381  1
  N  N86  1  0.71181225  0.88010970  0.87207854  1
  N  N87  1  0.99460496  0.78241696  0.88141812  1
  N  N88  1  0.91841316  0.91154681  0.36972697  1
  N  N89  1  0.93543130  0.69743773  0.47513021  1
  N  N90  1  0.70662948  0.40841199  0.07296758  1
  N  N91  1  0.49976031  0.95001570  0.57678414  1
  N  N92  1  0.50075963  0.51096509  0.57311081  1
  N  N93  1  0.30184047  0.91013168  0.56419008  1
  N  N94  1  0.00633855  0.83163958  0.64472177  1
  N  N95  1  0.91015017  0.05164452  0.62583566  1
  N  N96  1  0.88353556  0.25492771  0.32963800  1
  N  N97  1  0.72504779  0.49217236  0.12629999  1
  N  N98  1  0.37807822  0.60750304  0.30109608  1
  N  N99  1  0.31517432  0.45972343  0.46240846  1
