# generated using pymatgen
data_BN
_symmetry_space_group_name_H-M   'P 1'
_cell_length_a   10.60492509
_cell_length_b   10.05024212
_cell_length_c   10.59016866
_cell_angle_alpha   91.56163130
_cell_angle_beta   86.51292123
_cell_angle_gamma   89.18909376
_symmetry_Int_Tables_number   1
_chemical_formula_structural   BN
_chemical_formula_sum   'B50 N50'
_cell_volume   1126.07242525
_cell_formula_units_Z   50
loop_
 _symmetry_equiv_pos_site_id
 _symmetry_equiv_pos_as_xyz
  1  'x, y, z'
loop_
 _atom_site_type_symbol
 _atom_site_label
 _atom_site_symmetry_multiplicity
 _atom_site_fract_x
 _atom_site_fract_y
 _atom_site_fract_z
 _atom_site_occupancy
  B  B0  1  0.45194602  0.88582182  0.50864321  1
  B  B1  1  0.01561502  0.98749876  0.15823616  1
  B  B2  1  0.61450050  0.05583836  0.08901488  1
  B  B3  1  0.17134666  0.02040642  0.13315161  1
  B  B4  1  0.01025530  0.03127769  0.81960985  1
  B  B5  1  0.66154501  0.10741136  0.31869764  1
  B  B6  1  0.38634174  0.42304846  0.36906435  1
  B  B7  1  0.52542322  0.33623878  0.62627284  1
  B  B8  1  0.84542422  0.60760962  0.06362826  1
  B  B9  1  0.47488098  0.67516458  0.63865070  1
  B  B10  1  0.66126045  0.70138215  0.74751908  1
  B  B11  1  0.02321863  0.90583945  0.46831539  1
  B  B12  1  0.42185270  0.87280582  0.84004793  1
  B  B13  1  0.52655178  0.90955454  0.93071033  1
  B  B14  1  0.54234111  0.10241335  0.54001236  1
  B  B15  1  0.65739558  0.94491715  0.66809152  1
  B  B16  1  0.83582074  0.04981375  0.76640677  1
  B  B17  1  0.34998588  0.06166218  0.13564979  1
  B  B18  1  0.20335722  0.72557308  0.40436050  1
  B  B19  1  0.09686498  0.51565938  0.32404707  1
  B  B20  1  0.81659793  0.77066736  0.55008408  1
  B  B21  1  0.93274276  0.28904128  0.79047597  1
  B  B22  1  0.57104820  0.41781572  0.82746265  1
  B  B23  1  0.16543949  0.86547929  0.86617208  1
  B  B24  1  0.41372533  0.24028633  0.74055074  1
  B  B25  1  0.23864715  0.09397641  0.90413358  1
  B  B26  1  0.06168298  0.37275128  0.36818326  1
  B  B27  1  0.97534249  0.44434546  0.92866330  1
  B  B28  1  0.68381971  0.45424278  0.03896972  1
  B  B29  1  0.97572401  0.13134879  0.37037147  1
  B  B30  1  0.68413580  0.51305611  0.60146968  1
  B  B31  1  0.84147162  0.05824788  0.17191629  1
  B  B32  1  0.62992100  0.54725808  0.91661252  1
  B  B33  1  0.22838271  0.15976192  0.69871569  1
  B  B34  1  0.65854582  0.29449606  0.98576668  1
  B  B35  1  0.27280314  0.95430433  0.35796396  1
  B  B36  1  0.07136744  0.78004536  0.28499028  1
  B  B37  1  0.87563868  0.80542025  0.74512158  1
  B  B38  1  0.88761288  0.54683930  0.72003187  1
  B  B39  1  0.38265366  0.74128370  0.75333084  1
  B  B40  1  0.66798550  0.30857392  0.44002208  1
  B  B41  1  0.07167257  0.16527864  0.51756004  1
  B  B42  1  0.99803622  0.68057904  0.88969408  1
  B  B43  1  0.89488912  0.84189940  0.10764176  1
  B  B44  1  0.69680063  0.78146948  0.99246715  1
  B  B45  1  0.65992469  0.15813251  0.84787982  1
  B  B46  1  0.04312722  0.37150170  0.11231507  1
  B  B47  1  0.76573464  0.42629979  0.23860166  1
  B  B48  1  0.34077493  0.66553992  0.45918883  1
  B  B49  1  0.45762783  0.21392431  0.22687956  1
  N  N50  1  0.90117819  0.97885581  0.06849603  1
  N  N51  1  0.02630732  0.33693217  0.99431755  1
  N  N52  1  0.73118381  0.72918799  0.44137436  1
  N  N53  1  0.73967642  0.35753490  0.33618306  1
  N  N54  1  0.36181222  0.52772749  0.43964156  1
  N  N55  1  0.93904076  0.09467392  0.24956113  1
  N  N56  1  0.05855526  0.41549996  0.23274000  1
  N  N57  1  0.61691517  0.90737943  0.01368930  1
  N  N58  1  0.70192516  0.05639331  0.74832732  1
  N  N59  1  0.70245536  0.06733008  0.20072732  1
  N  N60  1  0.74316686  0.80911448  0.67983533  1
  N  N61  1  0.19236104  0.54951107  0.68276929  1
  N  N62  1  0.00211851  0.04801290  0.47705937  1
  N  N63  1  0.46545753  0.37529088  0.75278749  1
  N  N64  1  0.48023142  0.10126790  0.15148626  1
  N  N65  1  0.11811885  0.65329189  0.32758216  1
  N  N66  1  0.59563673  0.61484940  0.65899565  1
  N  N67  1  0.09125576  0.76712966  0.90794384  1
  N  N68  1  0.93411851  0.42415520  0.79564125  1
  N  N69  1  0.95147308  0.57762517  0.98177728  1
  N  N70  1  0.92709071  0.15527225  0.79674615  1
  N  N71  1  0.30011401  0.83041374  0.82020546  1
  N  N72  1  0.20468960  0.46484865  0.74685255  1
  N  N73  1  0.92915907  0.81611322  0.50602851  1
  N  N74  1  0.26320046  0.07346162  0.03320952  1
  N  N75  1  0.13295891  0.01112621  0.85805768  1
  N  N76  1  0.55946631  0.96010757  0.57845025  1
  N  N77  1  0.65657106  0.68530627  0.88607956  1
  N  N78  1  0.26346437  0.00984026  0.23218009  1
  N  N79  1  0.81301272  0.53490384  0.61726523  1
  N  N80  1  0.15848379  0.18178645  0.60830980  1
  N  N81  1  0.64844499  0.14909662  0.98465606  1
  N  N82  1  0.62589647  0.38974763  0.54970128  1
  N  N83  1  0.65733130  0.30772789  0.84720750  1
  N  N84  1  0.02728942  0.25521625  0.42202780  1
  N  N85  1  0.91668043  0.93611305  0.77506840  1
  N  N86  1  0.30797501  0.16499290  0.80063896  1
  N  N87  1  0.41943656  0.31858005  0.29213222  1
  N  N88  1  0.43552006  0.74130677  0.52475920  1
  N  N89  1  0.92609002  0.67673260  0.77250157  1
  N  N90  1  0.36327886  0.70600386  0.14475881  1
  N  N91  1  0.47488589  0.20164611  0.61547610  1
  N  N92  1  0.79805340  0.74682553  0.07006780  1
  N  N93  1  0.99607576  0.83510832  0.19708628  1
  N  N94  1  0.14970372  0.86417427  0.39245174  1
  N  N95  1  0.68862113  0.70070520  0.35028364  1
  N  N96  1  0.37866677  0.96145207  0.43027938  1
  N  N97  1  0.45454683  0.65031583  0.14735190  1
  N  N98  1  0.77340034  0.49771747  0.12846952  1
  N  N99  1  0.62835517  0.16160973  0.43527592  1
