# generated using pymatgen
data_Al2O3
_symmetry_space_group_name_H-M   'P 1'
_cell_length_a   10.53287245
_cell_length_b   10.30228391
_cell_length_c   10.36690099
_cell_angle_alpha   87.30610848
_cell_angle_beta   93.54363570
_cell_angle_gamma   83.96976677
_symmetry_Int_Tables_number   1
_chemical_formula_structural   Al2O3
_chemical_formula_sum   'Al40 O60'
_cell_volume   1114.95335903
_cell_formula_units_Z   20
loop_
 _symmetry_equiv_pos_site_id
 _symmetry_equiv_pos_as_xyz
  1  'x, y, z'
loop_
 _atom_site_type_symbol
 _atom_site_label
 _atom_site_symmetry_multiplicity
 _atom_site_fract_x
 _atom_site_fract_y
 _atom_site_fract_z
 _atom_site_occupancy
  Al  Al0  1  0.10694407  0.32413069  0.57036408  1
  Al  Al1  1  0.86502291  0.20788572  0.44415917  1
  Al  Al2  1  0.12458586  0.74058666  0.61110474  1
  Al  Al3  1  0.00849335  0.58076449  0.82678579  1
  Al  Al4  1  0.69202239  0.79181767  0.41553579  1
  Al  Al5  1  0.30905329  0.32966610  0.74447789  1
  Al  Al6  1  0.37226893  0.14473166  0.50535852  1
  Al  Al7  1  0.08765215  0.92459617  0.82344450  1
  Al  Al8  1  0.19890086  0.42379862  0.07322271  1
  Al  Al9  1  0.74401783  0.59525275  0.89141815  1
  Al  Al10  1  0.47475090  0.69025786  0.36658300  1
  Al  Al11  1  0.54444874  0.19893129  0.88870231  1
  Al  Al12  1  0.62916803  0.12916339  0.39162640  1
  Al  Al13  1  0.77667009  0.07123987  0.69969067  1
  Al  Al14  1  0.27012963  0.65933149  0.94860875  1
  Al  Al15  1  0.89079824  0.08626045  0.97948480  1
  Al  Al16  1  0.36574577  0.02604261  0.75999191  1
  Al  Al17  1  0.17598889  0.92304441  0.11506112  1
  Al  Al18  1  0.43064286  0.91257898  -0.00351332  1
  Al  Al19  1  0.55260306  0.82691273  0.69746617  1
  Al  Al20  1  0.60434554  0.31409189  0.58976873  1
  Al  Al21  1  0.96946518  0.76833143  0.29183094  1
  Al  Al22  1  0.95119489  0.43329030  0.27635770  1
  Al  Al23  1  0.98519396  0.10724281  0.25313517  1
  Al  Al24  1  0.31678057  0.85747714  0.49864359  1
  Al  Al25  1  0.08170511  0.07111005  0.52060580  1
  Al  Al26  1  0.71247865  0.98177973  0.13408111  1
  Al  Al27  1  0.50456721  0.47034295  0.95119573  1
  Al  Al28  1  0.75923902  0.33104163  0.80362024  1
  Al  Al29  1  0.65321971  0.57787420  0.61063792  1
  Al  Al30  1  0.40121792  0.45099969  0.21969192  1
  Al  Al31  1  0.81362988  0.85689732  0.83801619  1
  Al  Al32  1  0.47212185  0.97339178  0.25732890  1
  Al  Al33  1  0.94215700  0.59698480  0.51032111  1
  Al  Al34  1  0.12816804  0.19475314  0.89391887  1
  Al  Al35  1  0.68135234  0.28510969  0.16102153  1
  Al  Al36  1  0.27562213  0.16582378  0.18749003  1
  Al  Al37  1  0.92753983  0.37962047  0.03314531  1
  Al  Al38  1  0.74169156  0.68060711  0.18871088  1
  Al  Al39  1  0.35662779  0.52836275  0.52933092  1
  O  O40  1  0.22859649  0.25513185  0.01718979  1
  O  O41  1  0.51533335  0.47712380  0.59336483  1
  O  O42  1  0.88222462  0.69727512  0.86643095  1
  O  O43  1  0.65412768  0.67499511  0.74956319  1
  O  O44  1  0.88958118  0.45765374  0.87290275  1
  O  O45  1  0.00824283  0.44692608  0.45502272  1
  O  O46  1  0.96720780  0.26308657  0.31761294  1
  O  O47  1  0.19927904  0.18249140  0.49853440  1
  O  O48  1  0.60567462  0.11070586  0.21524272  1
  O  O49  1  0.62256907  0.67884284  0.30246952  1
  O  O50  1  0.42816918  0.34259918  0.87119067  1
  O  O51  1  0.40899740  0.96251389  0.59153822  1
  O  O52  1  0.98254319  0.20934183  0.58026759  1
  O  O53  1  0.25977540  0.41760759  0.59017379  1
  O  O54  1  0.92450921  0.94231203  0.74381889  1
  O  O55  1  0.29301561  0.33326696  0.22796269  1
  O  O56  1  0.44348398  0.86300484  0.81986817  1
  O  O57  1  0.34235391  0.00941489  0.12097595  1
  O  O58  1  0.65718663  0.45149135  0.88275505  1
  O  O59  1  0.28582806  0.69087586  0.55191158  1
  O  O60  1  0.37515412  0.09549031  0.33934157  1
  O  O61  1  0.14838173  0.76596922  0.78620424  1
  O  O62  1  0.13849250  0.07523145  0.20647106  1
  O  O63  1  0.85070775  0.16959735  0.81531926  1
  O  O64  1  0.62767810  0.22150964  0.74203391  1
  O  O65  1  0.54560998  0.72983760  0.52930654  1
  O  O66  1  0.77872340  0.65711458  0.51847804  1
  O  O67  1  0.01578432  0.73686659  0.45904387  1
  O  O68  1  0.16221852  0.91236429  0.55531618  1
  O  O69  1  0.45290586  0.07032773  0.90960244  1
  O  O70  1  0.61004189  0.95089182  0.40298898  1
  O  O71  1  0.30317756  0.55126031  0.10388723  1
  O  O72  1  0.53719559  0.40963008  0.12795673  1
  O  O73  1  0.78254423  0.95059284  0.97381391  1
  O  O74  1  0.89457303  0.60961687  0.27104295  1
  O  O75  1  0.81022043  0.39557467  0.14533887  1
  O  O76  1  0.79551588  0.83648445  0.25949399  1
  O  O77  1  0.40301409  0.54358226  0.36286335  1
  O  O78  1  0.14229027  0.30941979  0.75773713  1
  O  O79  1  0.56463607  0.89218985  0.12318249  1
  O  O80  1  0.14788223  0.53822003  0.92551303  1
  O  O81  1  0.98931599  0.22483914  -0.00742056  1
  O  O82  1  0.51145645  0.23127077  0.47709121  1
  O  O83  1  0.71953772  0.26755372  0.34100011  1
  O  O84  1  0.74519425  0.13608474  0.53989131  1
  O  O85  1  0.08457833  0.82138418  0.20301655  1
  O  O86  1  0.37746292  0.83803022  0.34003679  1
  O  O87  1  0.95373120  0.03970374  0.40794620  1
  O  O88  1  0.04510424  0.44136862  0.13607968  1
  O  O89  1  0.05034071  0.98103492  0.97722843  1
  O  O90  1  0.03165409  0.59769380  0.66125462  1
  O  O91  1  0.28273222  0.81891906  0.01438672  1
  O  O92  1  0.67523876  0.21601899  -0.00003025  1
  O  O93  1  0.68461876  0.92869442  0.72095569  1
  O  O94  1  0.19473851  0.04930546  0.80113338  1
  O  O95  1  0.70119227  0.66235554  0.03243901  1
  O  O96  1  0.41181216  0.60540627  0.88321219  1
  O  O97  1  0.74307237  0.40829851  0.63556272  1
  O  O98  1  0.37827031  0.18331139  0.68073634  1
  O  O99  1  0.85429889  0.07976871  0.15059292  1
