# generated using pymatgen
data_SiPbN2
_symmetry_space_group_name_H-M   'P 1'
_cell_length_a   5.20396762
_cell_length_b   11.19631757
_cell_length_c   15.32425398
_cell_angle_alpha   90.00000000
_cell_angle_beta   90.00000000
_cell_angle_gamma   90.00000000
_symmetry_Int_Tables_number   1
_chemical_formula_structural   SiPbN2
_chemical_formula_sum   'Si16 Pb16 N32'
_cell_volume   892.87185848
_cell_formula_units_Z   16
loop_
 _symmetry_equiv_pos_site_id
 _symmetry_equiv_pos_as_xyz
  1  'x, y, z'
loop_
 _atom_site_type_symbol
 _atom_site_label
 _atom_site_symmetry_multiplicity
 _atom_site_fract_x
 _atom_site_fract_y
 _atom_site_fract_z
 _atom_site_occupancy
  Si  Si0  1  0.72227358  0.99230089  0.18745137  1
  Si  Si1  1  0.22227358  0.50769911  0.81254863  1
  Si  Si2  1  0.27772642  0.49230089  0.31254863  1
  Si  Si3  1  0.77772642  0.00769911  0.68745137  1
  Si  Si4  1  0.27772642  0.00769911  0.81254863  1
  Si  Si5  1  0.77772642  0.49230089  0.18745137  1
  Si  Si6  1  0.72227358  0.50769911  0.68745137  1
  Si  Si7  1  0.22227358  0.99230089  0.31254863  1
  Si  Si8  1  0.81084998  0.25147886  0.06170745  1
  Si  Si9  1  0.31084998  0.24852114  0.93829255  1
  Si  Si10  1  0.18915002  0.75147886  0.43829255  1
  Si  Si11  1  0.68915002  0.74852114  0.56170745  1
  Si  Si12  1  0.18915002  0.74852114  0.93829255  1
  Si  Si13  1  0.68915002  0.75147886  0.06170745  1
  Si  Si14  1  0.81084998  0.24852114  0.56170745  1
  Si  Si15  1  0.31084998  0.25147886  0.43829255  1
  Pb  Pb16  1  0.72691376  0.97278237  0.43261641  1
  Pb  Pb17  1  0.22691376  0.52721763  0.56738359  1
  Pb  Pb18  1  0.27308624  0.47278237  0.06738359  1
  Pb  Pb19  1  0.77308624  0.02721763  0.93261641  1
  Pb  Pb20  1  0.27308624  0.02721763  0.56738359  1
  Pb  Pb21  1  0.77308624  0.47278237  0.43261641  1
  Pb  Pb22  1  0.72691376  0.52721763  0.93261641  1
  Pb  Pb23  1  0.22691376  0.97278237  0.06738359  1
  Pb  Pb24  1  0.86272609  0.22683621  0.31617876  1
  Pb  Pb25  1  0.36272609  0.27316379  0.68382124  1
  Pb  Pb26  1  0.13727391  0.72683621  0.18382124  1
  Pb  Pb27  1  0.63727391  0.77316379  0.81617876  1
  Pb  Pb28  1  0.13727391  0.77316379  0.68382124  1
  Pb  Pb29  1  0.63727391  0.72683621  0.31617876  1
  Pb  Pb30  1  0.86272609  0.27316379  0.81617876  1
  Pb  Pb31  1  0.36272609  0.22683621  0.18382124  1
  N  N32  1  0.60342392  0.48469995  0.28511701  1
  N  N33  1  0.10342392  0.01530005  0.71488299  1
  N  N34  1  0.39657608  0.98469995  0.21488299  1
  N  N35  1  0.89657608  0.51530005  0.78511701  1
  N  N36  1  0.39657608  0.51530005  0.71488299  1
  N  N37  1  0.89657608  0.98469995  0.28511701  1
  N  N38  1  0.60342392  0.01530005  0.78511701  1
  N  N39  1  0.10342392  0.48469995  0.21488299  1
  N  N40  1  0.64115901  0.26708337  0.46164890  1
  N  N41  1  0.14115901  0.23291663  0.53835110  1
  N  N42  1  0.35884099  0.76708337  0.03835110  1
  N  N43  1  0.85884099  0.73291663  0.96164890  1
  N  N44  1  0.35884099  0.73291663  0.53835110  1
  N  N45  1  0.85884099  0.76708337  0.46164890  1
  N  N46  1  0.64115901  0.23291663  0.96164890  1
  N  N47  1  0.14115901  0.26708337  0.03835110  1
  N  N48  1  0.68191273  0.37676054  0.11664953  1
  N  N49  1  0.18191273  0.12323946  0.88335047  1
  N  N50  1  0.31808727  0.87676054  0.38335047  1
  N  N51  1  0.81808727  0.62323946  0.61664953  1
  N  N52  1  0.31808727  0.62323946  0.88335047  1
  N  N53  1  0.81808727  0.87676054  0.11664953  1
  N  N54  1  0.68191273  0.12323946  0.61664953  1
  N  N55  1  0.18191273  0.37676054  0.38335047  1
  N  N56  1  0.75487544  0.12906895  0.13054171  1
  N  N57  1  0.25487544  0.37093105  0.86945829  1
  N  N58  1  0.24512456  0.62906895  0.36945829  1
  N  N59  1  0.74512456  0.87093105  0.63054171  1
  N  N60  1  0.24512456  0.87093105  0.86945829  1
  N  N61  1  0.74512456  0.62906895  0.13054171  1
  N  N62  1  0.75487544  0.37093105  0.63054171  1
  N  N63  1  0.25487544  0.12906895  0.36945829  1
