# generated using pymatgen
data_Mg(GaS2)2
_symmetry_space_group_name_H-M   'P 1'
_cell_length_a   7.34799036
_cell_length_b   7.34794006
_cell_length_c   7.34812202
_cell_angle_alpha   60.00099862
_cell_angle_beta   59.99896674
_cell_angle_gamma   60.00091277
_symmetry_Int_Tables_number   1
_chemical_formula_structural   Mg(GaS2)2
_chemical_formula_sum   'Mg2 Ga4 S8'
_cell_volume   280.54234743
_cell_formula_units_Z   2
loop_
 _symmetry_equiv_pos_site_id
 _symmetry_equiv_pos_as_xyz
  1  'x, y, z'
loop_
 _atom_site_type_symbol
 _atom_site_label
 _atom_site_symmetry_multiplicity
 _atom_site_fract_x
 _atom_site_fract_y
 _atom_site_fract_z
 _atom_site_occupancy
  Mg  Mg0  1  0.87499157  0.87500195  0.87501565  1
  Mg  Mg1  1  0.12501402  0.12499425  0.12499379  1
  Ga  Ga2  1  0.50000248  0.50002726  0.49996159  1
  Ga  Ga3  1  0.50000043  0.49999211  0.99999455  1
  Ga  Ga4  1  0.99999688  0.49998924  0.50001867  1
  Ga  Ga5  1  0.49999095  0.00000073  0.50000929  1
  S  S6  1  0.73875617  0.73874513  0.73873660  1
  S  S7  1  0.26124567  0.26125807  0.71623678  1
  S  S8  1  0.26124341  0.71623848  0.26126557  1
  S  S9  1  0.71624360  0.26125002  0.26125728  1
  S  S10  1  0.73874716  0.28376324  0.73872732  1
  S  S11  1  0.28375734  0.73874285  0.73874636  1
  S  S12  1  0.26124579  0.26124648  0.26127461  1
  S  S13  1  0.73876854  0.73874519  0.28376295  1
