# generated using pymatgen
data_Zr(PbN)4
_symmetry_space_group_name_H-M   'P 1'
_cell_length_a   6.97888175
_cell_length_b   7.91208728
_cell_length_c   9.59071085
_cell_angle_alpha   65.68164130
_cell_angle_beta   76.01875895
_cell_angle_gamma   55.44479543
_symmetry_Int_Tables_number   1
_chemical_formula_structural   Zr(PbN)4
_chemical_formula_sum   'Zr2 Pb8 N8'
_cell_volume   397.42613098
_cell_formula_units_Z   2
loop_
 _symmetry_equiv_pos_site_id
 _symmetry_equiv_pos_as_xyz
  1  'x, y, z'
loop_
 _atom_site_type_symbol
 _atom_site_label
 _atom_site_symmetry_multiplicity
 _atom_site_fract_x
 _atom_site_fract_y
 _atom_site_fract_z
 _atom_site_occupancy
  Zr  Zr0  1  0.75007504  0.81159399  0.75019324  1
  Zr  Zr1  1  0.24992496  0.18840601  0.24980676  1
  Pb  Pb2  1  0.76225048  0.61502457  0.13684637  1
  Pb  Pb3  1  0.23774952  0.38497543  0.86315363  1
  Pb  Pb4  1  0.76759364  0.29267792  0.95308049  1
  Pb  Pb5  1  0.23240636  0.70732208  0.04691951  1
  Pb  Pb6  1  0.73245198  0.51308124  0.54681302  1
  Pb  Pb7  1  0.26754802  0.48691876  0.45318698  1
  Pb  Pb8  1  0.26258400  0.98643346  0.63662477  1
  Pb  Pb9  1  0.73741600  0.01356654  0.36337523  1
  N  N10  1  0.97424918  0.57639985  0.64636698  1
  N  N11  1  0.02575082  0.42360015  0.35363302  1
  N  N12  1  0.97332080  0.72603612  0.91363842  1
  N  N13  1  0.02667920  0.27396388  0.08636158  1
  N  N14  1  0.52586840  0.69721251  0.85378192  1
  N  N15  1  0.47413160  0.30278749  0.14621808  1
  N  N16  1  0.47331645  0.88722723  0.41325197  1
  N  N17  1  0.52668355  0.11277277  0.58674803  1
