# generated using pymatgen
data_BMoN3
_symmetry_space_group_name_H-M   'P 1'
_cell_length_a   10.23183103
_cell_length_b   5.67540230
_cell_length_c   8.67290863
_cell_angle_alpha   121.82705145
_cell_angle_beta   108.54570413
_cell_angle_gamma   110.67168169
_symmetry_Int_Tables_number   1
_chemical_formula_structural   BMoN3
_chemical_formula_sum   'B4 Mo4 N12'
_cell_volume   309.51608625
_cell_formula_units_Z   4
loop_
 _symmetry_equiv_pos_site_id
 _symmetry_equiv_pos_as_xyz
  1  'x, y, z'
loop_
 _atom_site_type_symbol
 _atom_site_label
 _atom_site_symmetry_multiplicity
 _atom_site_fract_x
 _atom_site_fract_y
 _atom_site_fract_z
 _atom_site_occupancy
  B  B0  1  0.56037436  0.53436339  0.32151517  1
  B  B1  1  0.43962564  0.46563661  0.67848483  1
  B  B2  1  0.70690213  0.57416067  0.66718233  1
  B  B3  1  0.29309787  0.42583933  0.33281767  1
  Mo  Mo4  1  0.92483697  0.70087272  0.62060913  1
  Mo  Mo5  1  0.07516303  0.29912728  0.37939087  1
  Mo  Mo6  1  0.69398722  0.74625128  0.08194654  1
  Mo  Mo7  1  0.30601278  0.25374872  0.91805346  1
  N  N8  1  0.68151485  0.57764924  0.49453324  1
  N  N9  1  0.31848515  0.42235076  0.50546676  1
  N  N10  1  0.83367441  0.24291330  0.30129400  1
  N  N11  1  0.16632559  0.75708670  0.69870600  1
  N  N12  1  0.87820526  0.61637669  0.77172140  1
  N  N13  1  0.12179474  0.38362331  0.22827860  1
  N  N14  1  0.61374829  0.56013066  0.75737998  1
  N  N15  1  0.38625171  0.43986934  0.24262002  1
  N  N16  1  0.89605183  0.78406264  0.16436377  1
  N  N17  1  0.10394817  0.21593736  0.83563623  1
  N  N18  1  0.40641976  0.44531487  0.82348928  1
  N  N19  1  0.59358024  0.55468513  0.17651072  1
