# generated using pymatgen
data_TiO2
_symmetry_space_group_name_H-M   'P 1'
_cell_length_a   10.41933835
_cell_length_b   9.86497099
_cell_length_c   10.43780698
_cell_angle_alpha   90.22539413
_cell_angle_beta   89.68104552
_cell_angle_gamma   94.00703299
_symmetry_Int_Tables_number   1
_chemical_formula_structural   TiO2
_chemical_formula_sum   'Ti30 O60'
_cell_volume   1070.21935919
_cell_formula_units_Z   30
loop_
 _symmetry_equiv_pos_site_id
 _symmetry_equiv_pos_as_xyz
  1  'x, y, z'
loop_
 _atom_site_type_symbol
 _atom_site_label
 _atom_site_symmetry_multiplicity
 _atom_site_fract_x
 _atom_site_fract_y
 _atom_site_fract_z
 _atom_site_occupancy
  Ti  Ti0  1  0.36168263  0.28274773  0.33354223  1
  Ti  Ti1  1  0.75097655  0.04608155  0.54410263  1
  Ti  Ti2  1  0.53527494  0.74004781  0.48285391  1
  Ti  Ti3  1  0.81197913  0.77654540  0.28257476  1
  Ti  Ti4  1  0.33339815  0.49325703  0.11418897  1
  Ti  Ti5  1  0.55939229  0.99335104  0.21966667  1
  Ti  Ti6  1  0.03695711  0.54370781  0.28059066  1
  Ti  Ti7  1  0.58153498  0.53328770  0.91188150  1
  Ti  Ti8  1  0.79442719  0.56595557  0.63430306  1
  Ti  Ti9  1  0.58154414  0.32936527  0.62411166  1
  Ti  Ti10  1  0.29798673  0.11218339  0.11090299  1
  Ti  Ti11  1  0.01937604  0.34655954  0.53697909  1
  Ti  Ti12  1  0.13238707  0.46120628  0.83195632  1
  Ti  Ti13  1  0.24232566  0.85312924  0.71148881  1
  Ti  Ti14  1  0.99516755  0.22634269  0.06323196  1
  Ti  Ti15  1  0.42748612  0.80671713  0.94836630  1
  Ti  Ti16  1  0.80547443  0.24641635  0.33642742  1
  Ti  Ti17  1  0.25527614  0.20941216  0.59992099  1
  Ti  Ti18  1  0.43529803  0.10791425  0.80831092  1
  Ti  Ti19  1  0.59872499  0.46817697  0.35823245  1
  Ti  Ti20  1  0.78429347  0.94728380  0.03462719  1
  Ti  Ti21  1  0.99106178  0.81446027  0.49778735  1
  Ti  Ti22  1  0.98531571  0.09939775  0.79089812  1
  Ti  Ti23  1  0.31007505  0.94204162  0.41365032  1
  Ti  Ti24  1  0.05748158  0.78900550  0.93412859  1
  Ti  Ti25  1  0.63709554  0.26305549  0.03357219  1
  Ti  Ti26  1  0.08528928  0.91391911  0.22695966  1
  Ti  Ti27  1  0.25490748  0.56361256  0.56802607  1
  Ti  Ti28  1  0.87687303  0.52369139  0.03217301  1
  Ti  Ti29  1  0.65980786  0.80356345  0.74418510  1
  O  O30  1  0.07953950  0.96757233  0.84804520  1
  O  O31  1  0.02070436  0.74157461  0.32648547  1
  O  O32  1  0.68227137  0.85284864  0.18341401  1
  O  O33  1  0.68753336  0.09397070  0.37166321  1
  O  O34  1  0.25850805  0.80583904  0.89294795  1
  O  O35  1  0.41181474  0.26673724  0.69473519  1
  O  O36  1  0.67739773  0.09849628  0.11112590  1
  O  O37  1  0.25262911  0.45974721  0.94688355  1
  O  O38  1  0.71907660  0.59936080  0.99485566  1
  O  O39  1  0.45451902  0.15513206  0.22255058  1
  O  O40  1  0.45719158  0.92343095  0.79364633  1
  O  O41  1  0.19633728  0.39528446  0.65939650  1
  O  O42  1  0.64232576  0.44521763  0.76277596  1
  O  O43  1  0.21543537  0.30386875  0.43931390  1
  O  O44  1  0.64581341  0.66349405  0.35722393  1
  O  O45  1  0.10978571  0.09037203  0.11409908  1
  O  O46  1  0.93360450  0.43566528  0.65606956  1
  O  O47  1  0.89819749  0.81895891  0.97541604  1
  O  O48  1  0.84103076  0.89096597  0.44051905  1
  O  O49  1  0.67706232  0.89542910  0.90729729  1
  O  O50  1  0.49316956  0.33453818  0.45666391  1
  O  O51  1  0.35004218  0.11505735  0.45859726  1
  O  O52  1  0.12043149  0.94401531  0.41680588  1
  O  O53  1  0.11502353  0.79527076  0.09740828  1
  O  O54  1  0.64711268  0.17060950  0.62928680  1
  O  O55  1  0.01184993  0.58750733  0.91027253  1
  O  O56  1  0.48033500  0.88501664  0.35977362  1
  O  O57  1  0.07661431  0.17595525  0.63655454  1
  O  O58  1  0.27120384  0.29037405  0.16816443  1
  O  O59  1  0.52321366  0.68848609  0.83046432  1
  O  O60  1  0.00092637  0.41899215  0.11974519  1
  O  O61  1  0.89070855  0.09848036  0.96026525  1
  O  O62  1  0.04803961  0.28570749  0.87917699  1
  O  O63  1  0.21640853  0.63138528  0.72537032  1
  O  O64  1  0.07724709  0.82380912  0.65035111  1
  O  O65  1  0.88397488  0.65067218  0.50944826  1
  O  O66  1  0.79229432  0.35139314  0.99401667  1
  O  O67  1  0.90121676  0.18754366  0.20903623  1
  O  O68  1  0.32370652  0.12908475  0.93992829  1
  O  O69  1  0.90734750  0.92020212  0.19549566  1
  O  O70  1  0.68900152  0.36319207  0.25133272  1
  O  O71  1  0.27859017  0.04124465  0.68577386  1
  O  O72  1  0.87264562  0.61153236  0.19712757  1
  O  O73  1  0.70331424  0.43187324  0.51022451  1
  O  O74  1  0.95192104  0.39708395  0.36993754  1
  O  O75  1  0.58318053  0.17716815  0.88744807  1
  O  O76  1  0.85334187  0.01763204  0.69219008  1
  O  O77  1  0.45468751  0.93624792  0.07812038  1
  O  O78  1  0.80487074  0.70950747  0.75358054  1
  O  O79  1  0.44005714  0.45472410  0.26315969  1
  O  O80  1  0.31791419  0.80831850  0.54821812  1
  O  O81  1  0.62717136  0.65732832  0.60871914  1
  O  O82  1  0.11881614  0.55344343  0.46388775  1
  O  O83  1  0.42709737  0.64556308  0.05097747  1
  O  O84  1  0.51094190  0.39447182  0.01936873  1
  O  O85  1  0.62282352  0.90068056  0.58812067  1
  O  O86  1  0.87978179  0.20065378  0.49729723  1
  O  O87  1  0.27052094  0.96361243  0.23602606  1
  O  O88  1  0.41768777  0.59060909  0.48955198  1
  O  O89  1  0.20197567  0.55604144  0.20925713  1
