# generated using pymatgen
data_AlInN2
_symmetry_space_group_name_H-M   'P 1'
_cell_length_a   5.50076741
_cell_length_b   11.02744820
_cell_length_c   14.01175717
_cell_angle_alpha   90.00000000
_cell_angle_beta   90.00000000
_cell_angle_gamma   90.00000000
_symmetry_Int_Tables_number   1
_chemical_formula_structural   AlInN2
_chemical_formula_sum   'Al16 In16 N32'
_cell_volume   849.94517064
_cell_formula_units_Z   16
loop_
 _symmetry_equiv_pos_site_id
 _symmetry_equiv_pos_as_xyz
  1  'x, y, z'
loop_
 _atom_site_type_symbol
 _atom_site_label
 _atom_site_symmetry_multiplicity
 _atom_site_fract_x
 _atom_site_fract_y
 _atom_site_fract_z
 _atom_site_occupancy
  Al  Al0  1  0.66870529  0.02333963  0.18771927  1
  Al  Al1  1  0.16870529  0.47666037  0.81228073  1
  Al  Al2  1  0.33129471  0.52333963  0.31228073  1
  Al  Al3  1  0.83129471  0.97666037  0.68771927  1
  Al  Al4  1  0.33129471  0.97666037  0.81228073  1
  Al  Al5  1  0.83129471  0.52333963  0.18771927  1
  Al  Al6  1  0.66870529  0.47666037  0.68771927  1
  Al  Al7  1  0.16870529  0.02333963  0.31228073  1
  Al  Al8  1  0.78520476  0.28466424  0.06203594  1
  Al  Al9  1  0.28520476  0.21533576  0.93796406  1
  Al  Al10  1  0.21479524  0.78466424  0.43796406  1
  Al  Al11  1  0.71479524  0.71533576  0.56203594  1
  Al  Al12  1  0.21479524  0.71533576  0.93796406  1
  Al  Al13  1  0.71479524  0.78466424  0.06203594  1
  Al  Al14  1  0.78520476  0.21533576  0.56203594  1
  Al  Al15  1  0.28520476  0.28466424  0.43796406  1
  In  In16  1  0.71723949  0.96620337  0.44075289  1
  In  In17  1  0.21723949  0.53379663  0.55924711  1
  In  In18  1  0.28276051  0.46620337  0.05924711  1
  In  In19  1  0.78276051  0.03379663  0.94075289  1
  In  In20  1  0.28276051  0.03379663  0.55924711  1
  In  In21  1  0.78276051  0.46620337  0.44075289  1
  In  In22  1  0.71723949  0.53379663  0.94075289  1
  In  In23  1  0.21723949  0.96620337  0.05924711  1
  In  In24  1  0.78529254  0.26031541  0.30951248  1
  In  In25  1  0.28529254  0.23968459  0.69048752  1
  In  In26  1  0.21470746  0.76031541  0.19048752  1
  In  In27  1  0.71470746  0.73968459  0.80951248  1
  In  In28  1  0.21470746  0.73968459  0.69048752  1
  In  In29  1  0.71470746  0.76031541  0.30951248  1
  In  In30  1  0.78529254  0.23968459  0.80951248  1
  In  In31  1  0.28529254  0.26031541  0.19048752  1
  N  N32  1  0.65807129  0.47136669  0.29646762  1
  N  N33  1  0.15807129  0.02863331  0.70353238  1
  N  N34  1  0.34192871  0.97136669  0.20353238  1
  N  N35  1  0.84192871  0.52863331  0.79646762  1
  N  N36  1  0.34192871  0.52863331  0.70353238  1
  N  N37  1  0.84192871  0.97136669  0.29646762  1
  N  N38  1  0.65807129  0.02863331  0.79646762  1
  N  N39  1  0.15807129  0.47136669  0.20353238  1
  N  N40  1  0.63045110  0.27615038  0.45149578  1
  N  N41  1  0.13045110  0.22384962  0.54850422  1
  N  N42  1  0.36954890  0.77615038  0.04850422  1
  N  N43  1  0.86954890  0.72384962  0.95149578  1
  N  N44  1  0.36954890  0.72384962  0.54850422  1
  N  N45  1  0.86954890  0.77615038  0.45149578  1
  N  N46  1  0.63045110  0.22384962  0.95149578  1
  N  N47  1  0.13045110  0.27615038  0.04850422  1
  N  N48  1  0.69267017  0.44922926  0.07742662  1
  N  N49  1  0.19267017  0.05077074  0.92257338  1
  N  N50  1  0.30732983  0.94922926  0.42257338  1
  N  N51  1  0.80732983  0.55077074  0.57742662  1
  N  N52  1  0.30732983  0.55077074  0.92257338  1
  N  N53  1  0.80732983  0.94922926  0.07742662  1
  N  N54  1  0.69267017  0.05077074  0.57742662  1
  N  N55  1  0.19267017  0.44922926  0.42257338  1
  N  N56  1  0.66454780  0.19746588  0.17215843  1
  N  N57  1  0.16454780  0.30253412  0.82784157  1
  N  N58  1  0.33545220  0.69746588  0.32784157  1
  N  N59  1  0.83545220  0.80253412  0.67215843  1
  N  N60  1  0.33545220  0.80253412  0.82784157  1
  N  N61  1  0.83545220  0.69746588  0.17215843  1
  N  N62  1  0.66454780  0.30253412  0.67215843  1
  N  N63  1  0.16454780  0.19746588  0.32784157  1
