# generated using pymatgen
data_MgO
_symmetry_space_group_name_H-M   'P 1'
_cell_length_a   9.52265679
_cell_length_b   11.01083866
_cell_length_c   9.36602485
_cell_angle_alpha   89.57876778
_cell_angle_beta   90.69373034
_cell_angle_gamma   92.52557745
_symmetry_Int_Tables_number   1
_chemical_formula_structural   MgO
_chemical_formula_sum   'Mg40 O40'
_cell_volume   981.00185537
_cell_formula_units_Z   40
loop_
 _symmetry_equiv_pos_site_id
 _symmetry_equiv_pos_as_xyz
  1  'x, y, z'
loop_
 _atom_site_type_symbol
 _atom_site_label
 _atom_site_symmetry_multiplicity
 _atom_site_fract_x
 _atom_site_fract_y
 _atom_site_fract_z
 _atom_site_occupancy
  Mg  Mg0  1  0.53400827  0.79804609  0.25111262  1
  Mg  Mg1  1  0.14997254  0.52689373  0.82120942  1
  Mg  Mg2  1  0.73010834  0.44727592  0.09129758  1
  Mg  Mg3  1  0.58540909  0.04235547  0.57844814  1
  Mg  Mg4  1  0.31130414  0.34917386  0.63640011  1
  Mg  Mg5  1  0.28595706  0.51224048  0.14456603  1
  Mg  Mg6  1  0.62437954  0.31208780  0.72429582  1
  Mg  Mg7  1  0.65142280  0.55664358  0.67183654  1
  Mg  Mg8  1  0.89196234  0.19199072  0.24516874  1
  Mg  Mg9  1  0.92215289  0.88163643  0.39973230  1
  Mg  Mg10  1  0.00989645  0.33877837  0.03190563  1
  Mg  Mg11  1  0.05870184  0.13121793  0.49229265  1
  Mg  Mg12  1  0.06017721  0.63574522  0.55690956  1
  Mg  Mg13  1  0.26995667  0.80077469  0.06176464  1
  Mg  Mg14  1  0.85903039  0.60162488  0.90365734  1
  Mg  Mg15  1  -0.00398844  0.63416140  0.17019929  1
  Mg  Mg16  1  0.77237052  0.12941792  0.96471303  1
  Mg  Mg17  1  0.75720621  0.86789582  0.04833580  1
  Mg  Mg18  1  0.41691348  0.72440702  0.86237106  1
  Mg  Mg19  1  0.18915392  0.77395598  0.33704867  1
  Mg  Mg20  1  0.78927959  0.35225764  0.43752759  1
  Mg  Mg21  1  0.69333726  0.00532378  0.31593893  1
  Mg  Mg22  1  0.42558450  0.10873118  0.81535786  1
  Mg  Mg23  1  0.47999294  0.45722850  0.91373372  1
  Mg  Mg24  1  0.76621564  0.65614428  0.36610608  1
  Mg  Mg25  1  0.43345223  0.00351389  0.12186708  1
  Mg  Mg26  1  0.37312353  0.59735226  0.52975175  1
  Mg  Mg27  1  0.23516889  0.87978391  0.65130630  1
  Mg  Mg28  1  0.34032168  0.26189256  0.05845634  1
  Mg  Mg29  1  0.35976742  0.08272503  0.40998414  1
  Mg  Mg30  1  0.59481242  0.23594037  0.20347096  1
  Mg  Mg31  1  0.52244380  0.48897152  0.32134158  1
  Mg  Mg32  1  0.99155720  0.34544382  0.65713347  1
  Mg  Mg33  1  0.18204694  0.35245515  0.35925909  1
  Mg  Mg34  1  0.10796538  0.16380143  0.85792985  1
  Mg  Mg35  1  0.02763810  0.81444029  0.88962070  1
  Mg  Mg36  1  0.59560877  0.78801355  0.53472363  1
  Mg  Mg37  1  0.86606114  0.80767070  0.67204856  1
  Mg  Mg38  1  0.12355399  0.05261041  0.14321638  1
  Mg  Mg39  1  0.84721474  0.03939713  0.69730156  1
  O  O40  1  0.65473994  0.03134634  0.09988137  1
  O  O41  1  0.77198353  0.27540207  0.09276539  1
  O  O42  1  0.99936982  0.66250529  0.76411246  1
  O  O43  1  0.69886866  0.18248586  0.38106835  1
  O  O44  1  0.49566236  0.43783801  0.61568867  1
  O  O45  1  0.50096320  0.69477915  0.68585818  1
  O  O46  1  0.38532691  0.02201295  0.63445065  1
  O  O47  1  0.74551128  0.83283713  0.27019961  1
  O  O48  1  0.53902000  0.66454800  0.38063162  1
  O  O49  1  0.23314721  0.82518892  0.85879217  1
  O  O50  1  0.98257573  0.70357731  0.36771306  1
  O  O51  1  0.93497510  0.49775035  0.05073274  1
  O  O52  1  0.25059584  0.21837226  0.49260581  1
  O  O53  1  0.10510901  0.34671592  0.84471315  1
  O  O54  1  0.24158184  0.92123880  0.21326458  1
  O  O55  1  0.24298512  0.73445714  0.52838582  1
  O  O56  1  0.27579915  0.09244226  0.96630288  1
  O  O57  1  0.67336872  0.51903620  0.88884729  1
  O  O58  1  0.15615133  0.47814339  0.60958570  1
  O  O59  1  0.43753694  0.28727142  0.84461554  1
  O  O60  1  0.19709263  0.66760004  0.17098180  1
  O  O61  1  0.66037558  0.12930973  0.76298343  1
  O  O62  1  0.50365392  0.94682310  0.38130605  1
  O  O63  1  0.90087590  0.74195104  0.03674090  1
  O  O64  1  0.47986697  0.81791124  0.04796815  1
  O  O65  1  0.40762014  0.15778547  0.22019805  1
  O  O66  1  0.99200406  0.16258145  0.68347055  1
  O  O67  1  0.74315647  0.93568532  0.55196740  1
  O  O68  1  0.50373015  0.40224905  0.12353677  1
  O  O69  1  0.03172255  0.91100386  0.58836400  1
  O  O70  1  0.76879212  0.67991473  0.57205073  1
  O  O71  1  0.98265528  0.04247703  0.31297985  1
  O  O72  1  0.18407159  0.34537319  0.14612304  1
  O  O73  1  0.85329591  0.91793801  0.85293273  1
  O  O74  1  0.73167453  0.48348715  0.30429054  1
  O  O75  1  0.32406799  0.48721352  0.35775411  1
  O  O76  1  0.32519565  0.56489531  0.93237571  1
  O  O77  1  0.79195853  0.39560644  0.63991927  1
  O  O78  1  0.98306018  0.14364019  0.02961505  1
  O  O79  1  0.98191471  0.29701164  0.40286026  1
