# generated using pymatgen
data_Ba11(CN5)2
_symmetry_space_group_name_H-M   'P 1'
_cell_length_a   16.48571940
_cell_length_b   16.48571940
_cell_length_c   4.14975239
_cell_angle_alpha   90.00000000
_cell_angle_beta   90.00000000
_cell_angle_gamma   90.00000000
_symmetry_Int_Tables_number   1
_chemical_formula_structural   Ba11(CN5)2
_chemical_formula_sum   'Ba22 C4 N20'
_cell_volume   1127.81532298
_cell_formula_units_Z   2
loop_
 _symmetry_equiv_pos_site_id
 _symmetry_equiv_pos_as_xyz
  1  'x, y, z'
loop_
 _atom_site_type_symbol
 _atom_site_label
 _atom_site_symmetry_multiplicity
 _atom_site_fract_x
 _atom_site_fract_y
 _atom_site_fract_z
 _atom_site_occupancy
  Ba  Ba0  1  0.50000000  0.50000000  0.50000000  1
  Ba  Ba1  1  0.00000000  0.00000000  0.00000000  1
  Ba  Ba2  1  0.98106905  0.79268260  0.50000000  1
  Ba  Ba3  1  0.01893095  0.20731740  0.50000000  1
  Ba  Ba4  1  0.51893095  0.29268260  0.00000000  1
  Ba  Ba5  1  0.48106905  0.70731740  0.00000000  1
  Ba  Ba6  1  0.79268260  0.98106905  0.50000000  1
  Ba  Ba7  1  0.20731740  0.01893095  0.50000000  1
  Ba  Ba8  1  0.29268260  0.51893095  0.00000000  1
  Ba  Ba9  1  0.70731740  0.48106905  0.00000000  1
  Ba  Ba10  1  0.67539316  0.67539316  0.50000000  1
  Ba  Ba11  1  0.32460684  0.32460684  0.50000000  1
  Ba  Ba12  1  0.82460684  0.17539316  0.00000000  1
  Ba  Ba13  1  0.17539316  0.82460684  0.00000000  1
  Ba  Ba14  1  0.38200638  0.88338565  0.50000000  1
  Ba  Ba15  1  0.61799362  0.11661435  0.50000000  1
  Ba  Ba16  1  0.11799362  0.38338565  0.00000000  1
  Ba  Ba17  1  0.88200638  0.61661435  0.00000000  1
  Ba  Ba18  1  0.88338565  0.38200638  0.50000000  1
  Ba  Ba19  1  0.11661435  0.61799362  0.50000000  1
  Ba  Ba20  1  0.38338565  0.11799362  0.00000000  1
  Ba  Ba21  1  0.61661435  0.88200638  0.00000000  1
  C  C22  1  0.32193358  0.67806642  0.50000000  1
  C  C23  1  0.67806642  0.32193358  0.50000000  1
  C  C24  1  0.17806642  0.17806642  0.00000000  1
  C  C25  1  0.82193358  0.82193358  0.00000000  1
  N  N26  1  0.09554608  0.90445392  0.50000000  1
  N  N27  1  0.90445392  0.09554608  0.50000000  1
  N  N28  1  0.40445392  0.40445392  0.00000000  1
  N  N29  1  0.59554608  0.59554608  0.00000000  1
  N  N30  1  0.46408322  0.18777125  0.50000000  1
  N  N31  1  0.53591678  0.81222875  0.50000000  1
  N  N32  1  0.03591678  0.68777125  0.00000000  1
  N  N33  1  0.96408322  0.31222875  0.00000000  1
  N  N34  1  0.18777125  0.46408322  0.50000000  1
  N  N35  1  0.81222875  0.53591678  0.50000000  1
  N  N36  1  0.68777125  0.03591678  0.00000000  1
  N  N37  1  0.31222875  0.96408322  0.00000000  1
  N  N38  1  0.26868477  0.73131523  0.50000000  1
  N  N39  1  0.73131523  0.26868477  0.50000000  1
  N  N40  1  0.23131523  0.23131523  0.00000000  1
  N  N41  1  0.76868477  0.76868477  0.00000000  1
  N  N42  1  0.37550832  0.62449168  0.50000000  1
  N  N43  1  0.62449168  0.37550832  0.50000000  1
  N  N44  1  0.12449168  0.12449168  0.00000000  1
  N  N45  1  0.87550832  0.87550832  0.00000000  1
