# generated using pymatgen
data_Al2O3
_symmetry_space_group_name_H-M   'P 1'
_cell_length_a   10.00150198
_cell_length_b   10.60843658
_cell_length_c   10.62209306
_cell_angle_alpha   92.88793149
_cell_angle_beta   90.63806389
_cell_angle_gamma   92.53974008
_symmetry_Int_Tables_number   1
_chemical_formula_structural   Al2O3
_chemical_formula_sum   'Al40 O60'
_cell_volume   1124.36938084
_cell_formula_units_Z   20
loop_
 _symmetry_equiv_pos_site_id
 _symmetry_equiv_pos_as_xyz
  1  'x, y, z'
loop_
 _atom_site_type_symbol
 _atom_site_label
 _atom_site_symmetry_multiplicity
 _atom_site_fract_x
 _atom_site_fract_y
 _atom_site_fract_z
 _atom_site_occupancy
  Al  Al0  1  0.57745559  0.29587690  0.58737397  1
  Al  Al1  1  0.84133675  0.05748305  0.46790951  1
  Al  Al2  1  0.31786596  0.31010260  0.58296983  1
  Al  Al3  1  0.22619615  0.52082117  0.39220112  1
  Al  Al4  1  0.81894560  0.32846209  0.21819753  1
  Al  Al5  1  0.27459939  0.81669010  0.50173610  1
  Al  Al6  1  0.12258312  0.86927729  0.68937043  1
  Al  Al7  1  0.03767585  0.28120428  0.44379430  1
  Al  Al8  1  0.52512708  0.23544633  0.11055152  1
  Al  Al9  1  0.73282611  0.40201844  0.93279326  1
  Al  Al10  1  0.51256756  0.56468729  0.70704038  1
  Al  Al11  1  0.00900412  0.65894834  0.84095770  1
  Al  Al12  1  0.50530165  0.04338429  0.46858121  1
  Al  Al13  1  0.85481220  0.75675611  0.52640964  1
  Al  Al14  1  0.46143140  0.02633607  0.95166704  1
  Al  Al15  1  0.67900993  0.77274759  0.90778250  1
  Al  Al16  1  0.20962528  0.19562381  0.03981013  1
  Al  Al17  1  0.70583049  0.04952075  0.09189847  1
  Al  Al18  1  0.30434660  0.17568986  0.32249431  1
  Al  Al19  1  0.39988970  0.89609715  0.22578482  1
  Al  Al20  1  0.66968458  0.08094808  0.79677041  1
  Al  Al21  1  0.32588875  0.71801761  0.94212142  1
  Al  Al22  1  0.87421885  0.79147515  0.08520581  1
  Al  Al23  1  0.07339817  0.86856144  0.35688759  1
  Al  Al24  1  0.15532968  0.87288913  0.04508768  1
  Al  Al25  1  0.46988030  0.42979287  0.34226774  1
  Al  Al26  1  0.01605188  0.37484425  0.97173899  1
  Al  Al27  1  0.51387611  0.52479539  0.98007719  1
  Al  Al28  1  -0.00196416  0.07931192  0.91844571  1
  Al  Al29  1  0.87711856  0.92915559  0.73144193  1
  Al  Al30  1  0.93667485  0.60112434  0.27410123  1
  Al  Al31  1  0.70769316  0.53414847  0.43651429  1
  Al  Al32  1  0.55198473  0.74628260  0.44711244  1
  Al  Al33  1  0.20164494  0.49127172  0.77889522  1
  Al  Al34  1  0.45914058  0.85837437  0.73411569  1
  Al  Al35  1  0.63375165  0.68310844  0.20439474  1
  Al  Al36  1  0.22841078  0.51173153  0.13204902  1
  Al  Al37  1  0.86273788  0.24716764  0.70924447  1
  Al  Al38  1  0.00078651  0.09926578  0.21536637  1
  Al  Al39  1  0.03299255  0.58507975  0.54660573  1
  O  O40  1  0.02635463  0.85217951  0.15721871  1
  O  O41  1  0.17661334  0.13868980  0.20476018  1
  O  O42  1  0.63346628  0.12384657  0.95646976  1
  O  O43  1  0.19788396  0.21628337  0.45304940  1
  O  O44  1  0.58164116  0.38235156  0.03622800  1
  O  O45  1  0.92114794  0.20621108  0.55162157  1
  O  O46  1  0.42126161  0.85981265  0.90214819  1
  O  O47  1  0.12288785  0.90546446  0.52711091  1
  O  O48  1  0.62706200  0.50604706  0.84696376  1
  O  O49  1  0.04227588  0.97613004  0.78709086  1
  O  O50  1  0.20110111  0.34562332  0.69874611  1
  O  O51  1  0.07016650  0.44685621  0.45203375  1
  O  O52  1  0.94652199  0.24239330  0.29547182  1
  O  O53  1  0.51477620  0.00302941  0.11778063  1
  O  O54  1  0.59579390  0.67223396  0.03496693  1
  O  O55  1  0.73040234  0.91282428  0.81856891  1
  O  O56  1  0.24937199  0.84350615  0.33440384  1
  O  O57  1  0.86020807  0.38627758  0.06246468  1
  O  O58  1  0.81477033  0.67765923  0.18540415  1
  O  O59  1  0.28977045  0.82934040  0.67886536  1
  O  O60  1  0.39880629  0.03815125  0.33518720  1
  O  O61  1  0.87167447  0.36888546  0.82915832  1
  O  O62  1  0.34954292  0.56919657  0.02305471  1
  O  O63  1  0.85801215  0.10712942  0.79670283  1
  O  O64  1  0.95880215  0.77250049  0.69020124  1
  O  O65  1  0.38276656  0.17488721  0.00405321  1
  O  O66  1  0.14720048  0.76264188  0.90719012  1
  O  O67  1  0.08932040  0.51980888  0.92045337  1
  O  O68  1  0.54244059  0.61209056  0.54171719  1
  O  O69  1  0.07462096  0.57517202  0.70511165  1
  O  O70  1  0.51882483  0.78796711  0.28441226  1
  O  O71  1  0.34324706  0.41977958  0.46202125  1
  O  O72  1  0.72097788  0.73183189  0.41791734  1
  O  O73  1  0.16800021  0.35875606  0.08517409  1
  O  O74  1  0.95907721  0.00266160  0.34683293  1
  O  O75  1  0.90074671  0.08079488  0.07211938  1
  O  O76  1  0.07699684  0.22763552  0.91700568  1
  O  O77  1  0.62344155  0.37983522  0.45346523  1
  O  O78  1  0.33617527  0.51847295  0.26466847  1
  O  O79  1  0.97873899  0.72439190  0.40112562  1
  O  O80  1  0.69050773  0.20565556  0.18341230  1
  O  O81  1  0.67304944  0.07152835  0.44111577  1
  O  O82  1  0.09498978  0.57280239  0.22068691  1
  O  O83  1  0.84819839  0.58354886  0.55056924  1
  O  O84  1  0.47109784  0.39611560  0.67214374  1
  O  O85  1  0.44195056  0.18364441  0.54451340  1
  O  O86  1  0.68457114  0.21948299  0.69077675  1
  O  O87  1  0.73465138  0.88216677  0.06281129  1
  O  O88  1  0.59317499  0.54632091  0.29189182  1
  O  O89  1  0.83916549  0.92717587  0.56802143  1
  O  O90  1  0.57380096  0.72878778  0.76338810  1
  O  O91  1  0.86471791  0.71483475  0.92723866  1
  O  O92  1  0.20636569  0.65350472  0.49754671  1
  O  O93  1  0.35177157  0.59463186  0.79595275  1
  O  O94  1  0.43023022  0.27995769  0.25114097  1
  O  O95  1  0.83328895  0.46993234  0.31745734  1
  O  O96  1  0.50089932  0.02455202  0.76663624  1
  O  O97  1  0.15100486  0.02603144  0.99640225  1
  O  O98  1  0.30387427  0.81500851  0.09857556  1
  O  O99  1  0.46790158  0.87666520  0.52633374  1
