# generated using pymatgen
data_Fe2O3
_symmetry_space_group_name_H-M   'P 1'
_cell_length_a   9.25609196
_cell_length_b   10.28126366
_cell_length_c   10.88277695
_cell_angle_alpha   86.61346010
_cell_angle_beta   98.21484566
_cell_angle_gamma   88.04233584
_symmetry_Int_Tables_number   1
_chemical_formula_structural   Fe2O3
_chemical_formula_sum   'Fe32 O48'
_cell_volume   1022.28390025
_cell_formula_units_Z   16
loop_
 _symmetry_equiv_pos_site_id
 _symmetry_equiv_pos_as_xyz
  1  'x, y, z'
loop_
 _atom_site_type_symbol
 _atom_site_label
 _atom_site_symmetry_multiplicity
 _atom_site_fract_x
 _atom_site_fract_y
 _atom_site_fract_z
 _atom_site_occupancy
  Fe  Fe0  1  0.49592230  0.03020657  0.87662573  1
  Fe  Fe1  1  0.17993507  0.12928278  0.99624300  1
  Fe  Fe2  1  0.53876363  0.74364144  0.86536558  1
  Fe  Fe3  1  0.07556659  0.59988231  0.56548284  1
  Fe  Fe4  1  0.03578179  0.88211303  0.06449320  1
  Fe  Fe5  1  0.82989296  0.19395617  0.94010141  1
  Fe  Fe6  1  0.28144747  0.07161156  0.56892096  1
  Fe  Fe7  1  0.69735051  0.55068281  0.65727090  1
  Fe  Fe8  1  0.97513895  0.06526344  0.76635174  1
  Fe  Fe9  1  0.71626784  0.76314735  0.44621473  1
  Fe  Fe10  1  0.72428360  0.03233366  0.38482218  1
  Fe  Fe11  1  0.67779873  0.97107538  0.67319594  1
  Fe  Fe12  1  0.30975918  0.62785516  0.05834039  1
  Fe  Fe13  1  0.18204285  0.94739364  0.32656413  1
  Fe  Fe14  1  0.00569390  0.36208045  0.18719175  1
  Fe  Fe15  1  0.01870640  0.38519739  0.75615495  1
  Fe  Fe16  1  0.92304227  0.67741592  0.23467873  1
  Fe  Fe17  1  0.85469970  0.54341957  0.97139172  1
  Fe  Fe18  1  0.33156595  0.32388223  0.20102757  1
  Fe  Fe19  1  0.34639438  0.27177898  0.75113019  1
  Fe  Fe20  1  0.43151377  0.91990750  0.19259238  1
  Fe  Fe21  1  0.83937641  0.47379615  0.43499692  1
  Fe  Fe22  1  0.36580689  0.54958113  0.73028849  1
  Fe  Fe23  1  0.59621580  0.39437261  0.95060467  1
  Fe  Fe24  1  0.57271280  0.17807085  0.12460122  1
  Fe  Fe25  1  0.75402112  0.94356634  0.13603953  1
  Fe  Fe26  1  0.03154162  0.89309048  0.58537260  1
  Fe  Fe27  1  0.40838486  0.75834859  0.51425178  1
  Fe  Fe28  1  0.19193569  0.80085431  0.84655292  1
  Fe  Fe29  1  0.10962110  0.29274189  0.44506123  1
  Fe  Fe30  1  0.62999970  0.24330240  0.63116542  1
  Fe  Fe31  1  0.52457516  0.62506348  0.27006780  1
  O  O32  1  0.32978951  0.15656484  0.89396664  1
  O  O33  1  0.28478787  0.60572253  0.56386436  1
  O  O34  1  0.98108091  0.54410173  0.12669538  1
  O  O35  1  0.54513172  0.64148405  0.44610034  1
  O  O36  1  0.43804823  0.15582154  0.24106137  1
  O  O37  1  0.23996007  0.88931417  0.52719922  1
  O  O38  1  0.82441434  0.35804462  0.02649273  1
  O  O39  1  0.91328027  0.33556812  0.33985007  1
  O  O40  1  0.86651814  0.50075100  0.79816405  1
  O  O41  1  0.59086471  0.86485077  0.54496530  1
  O  O42  1  0.65084767  0.58069327  0.94788313  1
  O  O43  1  0.89598145  0.04043174  0.04191692  1
  O  O44  1  0.36940902  0.51884580  0.20558595  1
  O  O45  1  0.16136925  0.11197590  0.40184141  1
  O  O46  1  0.48821782  0.35522493  0.08006057  1
  O  O47  1  0.15329207  0.28095343  0.09082993  1
  O  O48  1  0.01993310  0.22594900  0.86250960  1
  O  O49  1  0.13239285  0.72673297  0.00193157  1
  O  O50  1  0.21930647  0.42398461  0.77905251  1
  O  O51  1  0.88137475  0.91798321  0.69743244  1
  O  O52  1  0.75326870  0.11206478  0.22913708  1
  O  O53  1  0.47851609  0.10818914  0.69215890  1
  O  O54  1  0.67361393  0.11685653  0.52199668  1
  O  O55  1  0.35392104  0.63429554  0.88694749  1
  O  O56  1  0.83319931  0.63086640  0.56078824  1
  O  O57  1  0.87635645  0.89560257  0.44767182  1
  O  O58  1  0.00890588  0.59651970  0.39476125  1
  O  O59  1  0.69550526  0.40036530  0.55798623  1
  O  O60  1  0.36096718  0.84246829  0.33752968  1
  O  O61  1  0.77547080  0.15347358  0.75810582  1
  O  O62  1  0.10330176  0.06177028  0.64563529  1
  O  O63  1  0.01074029  0.40861493  0.57598393  1
  O  O64  1  0.73809713  0.60511569  0.29645776  1
  O  O65  1  0.64411070  0.88335747  0.28729126  1
  O  O66  1  0.09847699  0.73446212  0.69205118  1
  O  O67  1  0.62200624  0.19829967  0.94384556  1
  O  O68  1  0.45519615  0.74478773  0.12412900  1
  O  O69  1  0.27736529  0.26405105  0.57741794  1
  O  O70  1  0.51238016  0.39210276  0.76301290  1
  O  O71  1  0.18851364  0.36932266  0.30875070  1
  O  O72  1  0.64675287  0.89954891  0.83900938  1
  O  O73  1  0.03651509  0.83992578  0.24771024  1
  O  O74  1  0.37466079  0.87989899  0.84111481  1
  O  O75  1  0.22093547  0.98920781  0.13737696  1
  O  O76  1  0.83538488  0.78540257  0.08112902  1
  O  O77  1  0.54648908  0.99452544  0.06355942  1
  O  O78  1  0.09965026  0.96625463  0.90318220  1
  O  O79  1  0.53537531  0.66169090  0.70215317  1
