# generated using pymatgen
data_Co2NiO4
_symmetry_space_group_name_H-M   'P 1'
_cell_length_a   5.71920783
_cell_length_b   5.71360429
_cell_length_c   8.14697489
_cell_angle_alpha   45.58674231
_cell_angle_beta   45.36660337
_cell_angle_gamma   60.06633711
_symmetry_Int_Tables_number   1
_chemical_formula_structural   Co2NiO4
_chemical_formula_sum   'Co4 Ni2 O8'
_cell_volume   135.31024518
_cell_formula_units_Z   2
loop_
 _symmetry_equiv_pos_site_id
 _symmetry_equiv_pos_as_xyz
  1  'x, y, z'
loop_
 _atom_site_type_symbol
 _atom_site_label
 _atom_site_symmetry_multiplicity
 _atom_site_fract_x
 _atom_site_fract_y
 _atom_site_fract_z
 _atom_site_occupancy
  Co  Co0  1  0.75000000  0.75000000  0.87500000  1
  Co  Co1  1  0.75000000  0.25000000  0.37500000  1
  Co  Co2  1  0.25000000  0.75000000  0.37500000  1
  Co  Co3  1  0.25000000  0.25000000  0.37500000  1
  Ni  Ni4  1  0.49542118  0.49787512  0.75473081  1
  Ni  Ni5  1  0.00457882  0.00212488  0.99526919  1
  O  O6  1  0.27983739  0.28141120  0.57920745  1
  O  O7  1  0.27495014  0.72050778  0.14161885  1
  O  O8  1  0.72227582  0.27572111  0.13988496  1
  O  O9  1  0.72211990  0.72129721  0.14075882  1
  O  O10  1  0.22016261  0.21858880  0.17079255  1
  O  O11  1  0.22504986  0.77949222  0.60838115  1
  O  O12  1  0.77772418  0.22427889  0.61011504  1
  O  O13  1  0.77788010  0.77870279  0.60924118  1
