# generated using pymatgen
data_Al2Co2O7
_symmetry_space_group_name_H-M   'P 1'
_cell_length_a   6.51888358
_cell_length_b   6.63652444
_cell_length_c   6.50244289
_cell_angle_alpha   59.74891515
_cell_angle_beta   59.28271068
_cell_angle_gamma   59.81123003
_symmetry_Int_Tables_number   1
_chemical_formula_structural   Al2Co2O7
_chemical_formula_sum   'Al4 Co4 O14'
_cell_volume   197.16479131
_cell_formula_units_Z   2
loop_
 _symmetry_equiv_pos_site_id
 _symmetry_equiv_pos_as_xyz
  1  'x, y, z'
loop_
 _atom_site_type_symbol
 _atom_site_label
 _atom_site_symmetry_multiplicity
 _atom_site_fract_x
 _atom_site_fract_y
 _atom_site_fract_z
 _atom_site_occupancy
  Al  Al0  1  0.50000000  -0.00000000  0.50000000  1
  Al  Al1  1  -0.00000000  0.50000000  0.50000000  1
  Al  Al2  1  0.50000000  0.50000000  0.00000000  1
  Al  Al3  1  0.50000000  0.50000000  0.50000000  1
  Co  Co4  1  -0.00000000  0.50000000  0.00000000  1
  Co  Co5  1  0.50000000  -0.00000000  0.00000000  1
  Co  Co6  1  -0.00000000  -0.00000000  0.50000000  1
  Co  Co7  1  -0.00000000  -0.00000000  0.00000000  1
  O  O8  1  0.62106523  0.63048738  0.61929007  1
  O  O9  1  0.37893477  0.36951262  0.38070993  1
  O  O10  1  0.34927438  0.92304947  0.88880748  1
  O  O11  1  0.07888571  0.65585383  0.65727792  1
  O  O12  1  0.90266297  0.34114734  0.89946383  1
  O  O13  1  0.88662716  0.92853148  0.34753206  1
  O  O14  1  0.34255353  0.34618278  0.91746552  1
  O  O15  1  0.33543274  0.88041517  0.33545766  1
  O  O16  1  0.92111429  0.34414617  0.34272208  1
  O  O17  1  0.65744647  0.65381722  0.08253448  1
  O  O18  1  0.11337284  0.07146852  0.65246794  1
  O  O19  1  0.65072562  0.07695053  0.11119252  1
  O  O20  1  0.66456726  0.11958483  0.66454234  1
  O  O21  1  0.09733703  0.65885266  0.10053617  1
