# generated using pymatgen
data_Al2O3
_symmetry_space_group_name_H-M   'P 1'
_cell_length_a   10.70168324
_cell_length_b   10.21016115
_cell_length_c   10.26513484
_cell_angle_alpha   94.11714701
_cell_angle_beta   87.62744792
_cell_angle_gamma   99.61043387
_symmetry_Int_Tables_number   1
_chemical_formula_structural   Al2O3
_chemical_formula_sum   'Al40 O60'
_cell_volume   1102.54065677
_cell_formula_units_Z   20
loop_
 _symmetry_equiv_pos_site_id
 _symmetry_equiv_pos_as_xyz
  1  'x, y, z'
loop_
 _atom_site_type_symbol
 _atom_site_label
 _atom_site_symmetry_multiplicity
 _atom_site_fract_x
 _atom_site_fract_y
 _atom_site_fract_z
 _atom_site_occupancy
  Al  Al0  1  0.71881572  0.02304564  0.83392233  1
  Al  Al1  1  0.75397236  0.03172415  0.40290498  1
  Al  Al2  1  0.26811974  0.38284088  0.20860385  1
  Al  Al3  1  0.98572640  0.42338910  0.50623768  1
  Al  Al4  1  0.82121539  0.98279716  0.13582054  1
  Al  Al5  1  0.31618355  0.86209536  0.12205650  1
  Al  Al6  1  0.18543949  0.94699355  0.51392240  1
  Al  Al7  1  0.17179274  0.25550268  0.61401406  1
  Al  Al8  1  0.23509852  0.24680356  0.90056337  1
  Al  Al9  1  0.49067371  0.32533240  0.05422213  1
  Al  Al10  1  0.44614924  0.47801309  0.64026071  1
  Al  Al11  1  0.32526045  0.96549184  0.83994907  1
  Al  Al12  1  0.53887459  0.96931699  0.61904938  1
  Al  Al13  1  0.94842533  0.00979302  0.65432396  1
  Al  Al14  1  0.52759309  0.06228518  0.32803784  1
  Al  Al15  1  0.63504664  0.72686458  0.74870257  1
  Al  Al16  1  0.01385688  0.25431588  0.09487449  1
  Al  Al17  1  0.71558774  0.73783827  0.27645139  1
  Al  Al18  1  0.22416330  0.08817100  0.24689846  1
  Al  Al19  1  0.57582144  0.86524576  0.03114595  1
  Al  Al20  1  0.93458466  0.19260814  0.84083721  1
  Al  Al21  1  0.41671090  0.60076158  0.93288252  1
  Al  Al22  1  0.81623796  0.71505641  0.96711176  1
  Al  Al23  1  0.18222823  0.65277079  0.34289064  1
  Al  Al24  1  0.07312561  0.97027462  0.99497079  1
  Al  Al25  1  0.41430748  0.20668849  0.62742498  1
  Al  Al26  1  0.12952700  0.51754502  0.80468623  1
  Al  Al27  1  0.55128159  0.59673970  0.14110174  1
  Al  Al28  1  0.88478374  0.47269338  0.02166804  1
  Al  Al29  1  0.06205104  0.77975431  0.74967770  1
  Al  Al30  1  0.64030323  0.28638624  0.77736324  1
  Al  Al31  1  0.47157295  0.30545469  0.34272002  1
  Al  Al32  1  0.44708306  0.56568447  0.38669449  1
  Al  Al33  1  0.30716623  0.73233441  0.60695230  1
  Al  Al34  1  0.71544899  0.49974001  0.51570073  1
  Al  Al35  1  0.88079385  0.51729731  0.29331836  1
  Al  Al36  1  0.12435146  0.58249017  0.07134910  1
  Al  Al37  1  0.83997300  0.54381959  0.74402697  1
  Al  Al38  1  0.00525532  0.11191082  0.37912404  1
  Al  Al39  1  0.70357372  0.21979127  0.12054145  1
  O  O40  1  0.91820002  0.87733963  0.03877086  1
  O  O41  1  0.07366123  0.16913362  0.22377562  1
  O  O42  1  0.61993661  0.27687918  0.96121021  1
  O  O43  1  0.06296648  0.27809656  0.47954349  1
  O  O44  1  0.53788738  0.22878146  0.19079426  1
  O  O45  1  0.95597900  0.33254467  0.95357627  1
  O  O46  1  0.40473079  0.90276848  0.96712926  1
  O  O47  1  0.12852528  0.00988001  0.37868192  1
  O  O48  1  0.50544606  0.49233848  0.99848259  1
  O  O49  1  0.04921322  0.88710850  0.61675063  1
  O  O50  1  0.25759620  0.10212794  0.58684166  1
  O  O51  1  0.03939371  0.55589048  0.39601675  1
  O  O52  1  0.87822165  0.97967448  0.29778094  1
  O  O53  1  0.65574518  0.02514592  0.99575312  1
  O  O54  1  0.67579024  0.87885251  0.18227903  1
  O  O55  1  0.03845581  0.16576429  0.70246501  1
  O  O56  1  0.15459044  0.89631609  0.85999035  1
  O  O57  1  0.72455540  0.63749810  0.64101092  1
  O  O58  1  0.46323550  0.71998897  0.07487725  1
  O  O59  1  0.38099710  0.89052757  0.67792677  1
  O  O60  1  0.19631823  0.97209301  0.10730172  1
  O  O61  1  0.98879894  0.48033069  0.67715776  1
  O  O62  1  0.46922226  0.44734147  0.23178921  1
  O  O63  1  0.85711452  0.14856104  0.09095215  1
  O  O64  1  0.90709370  0.72212280  0.79961188  1
  O  O65  1  0.30553132  0.24979039  0.29926776  1
  O  O66  1  0.32704575  0.13489494  0.82710662  1
  O  O67  1  0.03076716  0.57763243  0.92963101  1
  O  O68  1  0.54605865  0.45461317  0.46813503  1
  O  O69  1  0.17874825  0.67084952  0.70889801  1
  O  O70  1  0.55111886  0.68574095  0.30759106  1
  O  O71  1  0.23843402  0.78800527  0.46626369  1
  O  O72  1  0.78121268  0.63087038  0.37517042  1
  O  O73  1  0.28632289  0.53266174  0.32724231  1
  O  O74  1  0.87473498  0.06192752  0.52001782  1
  O  O75  1  0.88112498  0.00002874  0.81471879  1
  O  O76  1  0.19308797  0.36072259  0.78521522  1
  O  O77  1  0.49395427  0.35243855  0.73107826  1
  O  O78  1  0.40498493  0.62049817  0.54904408  1
  O  O79  1  0.96513731  0.58829923  0.15372465  1
  O  O80  1  0.69348180  0.12710688  0.29027080  1
  O  O81  1  0.73313601  0.40425415  0.66751699  1
  O  O82  1  0.20919615  0.71711328  0.18171633  1
  O  O83  1  0.80131059  0.38566855  0.16267662  1
  O  O84  1  0.31887015  0.29896235  0.04836538  1
  O  O85  1  0.54547517  0.12828136  0.68941650  1
  O  O86  1  0.83362007  0.40996310  0.43326695  1
  O  O87  1  0.38596410  0.97764091  0.25193822  1
  O  O88  1  0.72263774  0.64982130  0.12099099  1
  O  O89  1  0.64080284  0.89814466  0.71225732  1
  O  O90  1  0.78686690  0.53315690  0.91183022  1
  O  O91  1  0.77245503  0.18936479  0.79020958  1
  O  O92  1  0.48226481  0.18006276  0.45158849  1
  O  O93  1  0.48145791  0.62362646  0.77152473  1
  O  O94  1  0.32542271  0.34855973  0.57181448  1
  O  O95  1  0.12583848  0.41312735  0.13622791  1
  O  O96  1  0.67568917  0.77552085  0.91351699  1
  O  O97  1  0.08414335  0.14713249  0.96106393  1
  O  O98  1  0.25414377  0.57703058  0.94124569  1
  O  O99  1  0.59494793  0.95882943  0.45360454  1
