# generated using pymatgen
data_Mg4TiN4
_symmetry_space_group_name_H-M   'P 1'
_cell_length_a   5.46453755
_cell_length_b   5.48269150
_cell_length_c   8.28754753
_cell_angle_alpha   70.64930073
_cell_angle_beta   82.72970521
_cell_angle_gamma   68.92969678
_symmetry_Int_Tables_number   1
_chemical_formula_structural   Mg4TiN4
_chemical_formula_sum   'Mg8 Ti2 N8'
_cell_volume   218.60004946
_cell_formula_units_Z   2
loop_
 _symmetry_equiv_pos_site_id
 _symmetry_equiv_pos_as_xyz
  1  'x, y, z'
loop_
 _atom_site_type_symbol
 _atom_site_label
 _atom_site_symmetry_multiplicity
 _atom_site_fract_x
 _atom_site_fract_y
 _atom_site_fract_z
 _atom_site_occupancy
  Mg  Mg0  1  0.72726964  0.61982122  0.20393005  1
  Mg  Mg1  1  0.27273036  0.38017878  0.79606995  1
  Mg  Mg2  1  0.75463431  0.24298418  0.99719155  1
  Mg  Mg3  1  0.24536569  0.75701582  0.00280845  1
  Mg  Mg4  1  0.73685628  0.47999597  0.57448783  1
  Mg  Mg5  1  0.26314372  0.52000403  0.42551217  1
  Mg  Mg6  1  0.25788538  0.93425861  0.58700880  1
  Mg  Mg7  1  0.74211462  0.06574139  0.41299120  1
  Ti  Ti8  1  0.72221894  0.83741266  0.76960184  1
  Ti  Ti9  1  0.27778106  0.16258734  0.23039816  1
  N  N10  1  0.99290548  0.70028899  0.60826858  1
  N  N11  1  0.00709452  0.29971101  0.39173142  1
  N  N12  1  0.84050228  0.84643864  0.97288566  1
  N  N13  1  0.15949772  0.15356136  0.02711434  1
  N  N14  1  0.50611465  0.61078637  0.80419722  1
  N  N15  1  0.49388535  0.38921363  0.19580278  1
  N  N16  1  0.48991937  0.81164867  0.37899973  1
  N  N17  1  0.51008063  0.18835133  0.62100027  1
