# generated using pymatgen
data_CoSi2N3
_symmetry_space_group_name_H-M   'P 1'
_cell_length_a   5.34061314
_cell_length_b   5.39863201
_cell_length_c   4.82646770
_cell_angle_alpha   90.00000000
_cell_angle_beta   90.00000000
_cell_angle_gamma   120.36001328
_symmetry_Int_Tables_number   1
_chemical_formula_structural   CoSi2N3
_chemical_formula_sum   'Co2 Si4 N6'
_cell_volume   120.07370684
_cell_formula_units_Z   2
loop_
 _symmetry_equiv_pos_site_id
 _symmetry_equiv_pos_as_xyz
  1  'x, y, z'
loop_
 _atom_site_type_symbol
 _atom_site_label
 _atom_site_symmetry_multiplicity
 _atom_site_fract_x
 _atom_site_fract_y
 _atom_site_fract_z
 _atom_site_occupancy
  Co  Co0  1  0.00000000  0.60287623  0.49975391  1
  Co  Co1  1  1.00000000  0.39712377  0.99975391  1
  Si  Si2  1  0.33807419  0.32742723  0.49370569  1
  Si  Si3  1  0.66192581  0.98935304  0.49370569  1
  Si  Si4  1  0.66192581  0.67257277  0.99370569  1
  Si  Si5  1  0.33807419  0.01064696  0.99370569  1
  N  N6  1  0.38915517  0.33867879  0.85547592  1
  N  N7  1  0.61084483  0.94952462  0.85547592  1
  N  N8  1  0.61084483  0.66132121  0.35547592  1
  N  N9  1  0.38915517  0.05047538  0.35547592  1
  N  N10  1  1.00000000  0.74761844  0.88988387  1
  N  N11  1  0.00000000  0.25238156  0.38988387  1
