# generated using pymatgen
data_NaV2O5
_symmetry_space_group_name_H-M   'P 1'
_cell_length_a   3.64389114
_cell_length_b   5.01135500
_cell_length_c   11.50250076
_cell_angle_alpha   90.00000000
_cell_angle_beta   90.00000000
_cell_angle_gamma   90.00000000
_symmetry_Int_Tables_number   1
_chemical_formula_structural   NaV2O5
_chemical_formula_sum   'Na2 V4 O10'
_cell_volume   210.04523492
_cell_formula_units_Z   2
loop_
 _symmetry_equiv_pos_site_id
 _symmetry_equiv_pos_as_xyz
  1  'x, y, z'
loop_
 _atom_site_type_symbol
 _atom_site_label
 _atom_site_symmetry_multiplicity
 _atom_site_fract_x
 _atom_site_fract_y
 _atom_site_fract_z
 _atom_site_occupancy
  O  O0  1  0.75000070  0.92572720  0.38065308  1
  O  O1  1  0.25000116  0.48140663  0.07096871  1
  O  O2  1  0.75000070  0.51859391  0.57096926  1
  O  O3  1  0.25000116  0.48140663  0.42903095  1
  O  O4  1  0.75000070  0.46949906  0.24999983  1
  O  O5  1  0.25000116  0.07427333  0.61934713  1
  O  O6  1  0.75000070  0.92572720  0.11934746  1
  O  O7  1  0.25000116  0.07427333  0.88065275  1
  O  O8  1  0.75000070  0.51859391  0.92903062  1
  O  O9  1  0.25000116  0.53049950  0.75000038  1
  Na  Na10  1  0.25000116  0.12433945  0.24999983  1
  Na  Na11  1  0.75000070  0.87566108  0.75000038  1
  V  V12  1  0.25000116  0.40038402  0.59997610  1
  V  V13  1  0.75000070  0.59961651  0.40002411  1
  V  V14  1  0.25000116  0.40038402  0.90002378  1
  V  V15  1  0.75000070  0.59961651  0.09997643  1
