# generated using pymatgen
data_NbV3O8
_symmetry_space_group_name_H-M   'P 1'
_cell_length_a   6.01682415
_cell_length_b   5.98587698
_cell_length_c   9.38831459
_cell_angle_alpha   88.12927901
_cell_angle_beta   90.93010064
_cell_angle_gamma   119.82925268
_symmetry_Int_Tables_number   1
_chemical_formula_structural   NbV3O8
_chemical_formula_sum   'Nb2 V6 O16'
_cell_volume   293.17471115
_cell_formula_units_Z   2
loop_
 _symmetry_equiv_pos_site_id
 _symmetry_equiv_pos_as_xyz
  1  'x, y, z'
loop_
 _atom_site_type_symbol
 _atom_site_label
 _atom_site_symmetry_multiplicity
 _atom_site_fract_x
 _atom_site_fract_y
 _atom_site_fract_z
 _atom_site_occupancy
  Nb  Nb0  1  0.34833000  0.68025700  0.49966000  1
  Nb  Nb1  1  0.65167300  0.33192800  0.99966000  1
  V  V2  1  0.15489700  0.81421400  0.22004600  1
  V  V3  1  0.16545100  0.33845500  0.20474100  1
  V  V4  1  0.65499200  0.82051400  0.21739200  1
  V  V5  1  0.34501100  0.16551700  0.71739700  1
  V  V6  1  0.84509100  0.65932100  0.72004100  1
  V  V7  1  0.83458200  0.17302900  0.70473200  1
  O  O8  1  0.17824800  0.83036400  0.60294300  1
  O  O9  1  0.04583400  0.53109300  0.33705000  1
  O  O10  1  0.33429100  0.68107800  0.10659800  1
  O  O11  1  0.99621100  0.99434000  0.30112700  1
  O  O12  1  0.00378200  0.99812400  0.80113100  1
  O  O13  1  0.18459600  0.34298100  0.59736700  1
  O  O14  1  0.47622100  0.95410500  0.33612600  1
  O  O15  1  0.48641600  0.53328000  0.33527100  1
  O  O16  1  0.33409400  0.15920000  0.09954500  1
  O  O17  1  0.66590500  0.82510700  0.59954400  1
  O  O18  1  0.52376900  0.47788100  0.83612700  1
  O  O19  1  0.51358100  0.04686600  0.83527000  1
  O  O20  1  0.66571400  0.34678800  0.60660000  1
  O  O21  1  0.82174700  0.65211400  0.10294300  1
  O  O22  1  0.95415900  0.48525700  0.83704600  1
  O  O23  1  0.81540400  0.15838600  0.09736800  1
