# generated using pymatgen
data_Al2O3
_symmetry_space_group_name_H-M   'P 1'
_cell_length_a   10.65453612
_cell_length_b   9.88476395
_cell_length_c   10.51748595
_cell_angle_alpha   86.42377783
_cell_angle_beta   91.41651984
_cell_angle_gamma   89.27236304
_symmetry_Int_Tables_number   1
_chemical_formula_structural   Al2O3
_chemical_formula_sum   'Al40 O60'
_cell_volume   1105.06870570
_cell_formula_units_Z   20
loop_
 _symmetry_equiv_pos_site_id
 _symmetry_equiv_pos_as_xyz
  1  'x, y, z'
loop_
 _atom_site_type_symbol
 _atom_site_label
 _atom_site_symmetry_multiplicity
 _atom_site_fract_x
 _atom_site_fract_y
 _atom_site_fract_z
 _atom_site_occupancy
  Al  Al0  1  0.31335799  0.37389042  0.23064821  1
  Al  Al1  1  0.22438925  0.00777086  0.38739150  1
  Al  Al2  1  0.53983177  0.84445121  0.71480111  1
  Al  Al3  1  0.58379089  0.69944512  0.98936454  1
  Al  Al4  1  0.21711409  0.81612585  0.63010695  1
  Al  Al5  1  0.12074572  0.31745725  0.72029912  1
  Al  Al6  1  0.91873169  0.16943401  0.80415603  1
  Al  Al7  1  0.32655989  0.85724198  0.93090907  1
  Al  Al8  1  0.28090703  0.55234945  0.75969088  1
  Al  Al9  1  0.85244134  0.68313451  0.54494075  1
  Al  Al10  1  0.71149493  0.99207961  0.43571580  1
  Al  Al11  1  0.61687656  0.27620335  0.29630130  1
  Al  Al12  1  0.94616050  0.80590932  0.34498771  1
  Al  Al13  1  0.42643692  0.75650675  0.44792692  1
  Al  Al14  1  0.29420982  0.49953569  0.51019297  1
  Al  Al15  1  0.25533378  0.13093617  0.10100776  1
  Al  Al16  1  0.71513197  0.46608801  0.10047262  1
  Al  Al17  1  0.62299790  0.29792070  0.70016907  1
  Al  Al18  1  0.72957115  0.02043059  0.71737964  1
  Al  Al19  1  0.47259575  0.21280073  0.48029257  1
  Al  Al20  1  0.91011944  0.21795265  0.33577334  1
  Al  Al21  1  0.96688017  0.11816183  0.03679183  1
  Al  Al22  1  0.69454369  0.95371203  0.99640789  1
  Al  Al23  1  0.44661558  0.93236809  0.15633872  1
  Al  Al24  1  0.12852843  0.30838273  0.43469417  1
  Al  Al25  1  0.85899119  0.48534965  0.32231393  1
  Al  Al26  1  0.98768254  0.02833768  0.55549033  1
  Al  Al27  1  0.42035362  0.43683936  0.01263746  1
  Al  Al28  1  0.55474877  0.53609511  0.56603670  1
  Al  Al29  1  0.66273256  0.71666449  0.32541292  1
  Al  Al30  1  0.21849060  0.61994304  0.02458026  1
  Al  Al31  1  0.73207065  0.58766293  0.79884514  1
  Al  Al32  1  0.01618494  0.62115188  0.82092437  1
  Al  Al33  1  0.87706367  0.67791723  0.05584939  1
  Al  Al34  1  0.30232319  0.07735133  0.65628541  1
  Al  Al35  1  0.01796691  0.37449896  0.07886904  1
  Al  Al36  1  0.39309304  0.29612502  0.77444297  1
  Al  Al37  1  0.10338671  0.87193521  0.15878399  1
  Al  Al38  1  0.55125663  0.19959282  0.02774260  1
  Al  Al39  1  0.99819477  0.89305390  0.81977152  1
  O  O40  1  0.81714722  0.06462080  0.97877310  1
  O  O41  1  0.33932210  0.01931581  0.00088252  1
  O  O42  1  0.89090414  0.97990506  0.70575066  1
  O  O43  1  0.50059191  0.72684360  0.60094192  1
  O  O44  1  0.32908347  0.41845580  0.87790255  1
  O  O45  1  0.32030041  0.12993579  0.48467422  1
  O  O46  1  0.25142147  0.20044144  0.76618461  1
  O  O47  1  0.65215404  0.47378692  0.71105873  1
  O  O48  1  0.93428146  0.22276547  0.16825466  1
  O  O49  1  0.60913115  0.70806798  0.82223996  1
  O  O50  1  0.46809952  0.17401378  0.66220310  1
  O  O51  1  0.98169487  0.36965103  0.38549039  1
  O  O52  1  0.14939438  0.98740258  0.61846729  1
  O  O53  1  0.58067076  0.34733546  0.53138516  1
  O  O54  1  0.58088065  0.03187018  0.09490499  1
  O  O55  1  0.76530668  0.86044509  0.33571995  1
  O  O56  1  0.65211182  0.94103968  0.59298835  1
  O  O57  1  0.70517858  0.57566604  0.23857325  1
  O  O58  1  0.10271097  0.77293897  0.75706911  1
  O  O59  1  0.18825212  0.36974493  0.57508484  1
  O  O60  1  0.78539308  0.54667730  0.95706024  1
  O  O61  1  0.36178389  0.90589193  0.74462489  1
  O  O62  1  0.30571974  0.67395564  0.88220240  1
  O  O63  1  0.97686304  0.28225465  0.93282633  1
  O  O64  1  0.10328122  0.88158403  0.32650566  1
  O  O65  1  0.24301141  0.64133862  0.60460430  1
  O  O66  1  0.30111262  0.86399656  0.47853250  1
  O  O67  1  0.08506890  0.13368508  0.40907005  1
  O  O68  1  0.06991982  0.54676487  0.99792187  1
  O  O69  1  0.11397020  0.48792347  0.76908146  1
  O  O70  1  0.40447295  0.26390373  0.08261948  1
  O  O71  1  0.39979904  0.45425946  0.66090701  1
  O  O72  1  0.42983126  0.57732378  0.43450127  1
  O  O73  1  0.17959031  0.29588484  0.14328411  1
  O  O74  1  0.71965598  0.78129739  0.05403807  1
  O  O75  1  0.20623444  0.79192370  0.05870387  1
  O  O76  1  0.55990113  0.52684669  0.02916001  1
  O  O77  1  0.91834561  0.62887912  0.40013086  1
  O  O78  1  0.10476034  0.04359383  0.11197555  1
  O  O79  1  0.32492455  0.52105585  0.12180588  1
  O  O80  1  0.46170829  0.80361759  0.03584093  1
  O  O81  1  0.85381991  0.08629691  0.44746998  1
  O  O82  1  0.93213298  0.75548771  0.90972595  1
  O  O83  1  0.54216256  0.27174684  0.86716480  1
  O  O84  1  0.95822048  0.78006271  0.16986852  1
  O  O85  1  0.51222491  0.81323076  0.30437669  1
  O  O86  1  0.45395565  0.31468530  0.32020947  1
  O  O87  1  0.59480869  0.11674916  0.38861069  1
  O  O88  1  0.89856834  0.49182186  0.15214644  1
  O  O89  1  0.69247722  0.63733334  0.48828842  1
  O  O90  1  0.23252430  0.43002998  0.36055906  1
  O  O91  1  0.87205393  0.62132706  0.70836459  1
  O  O92  1  0.76660258  0.33118074  0.33737300  1
  O  O93  1  0.94206660  0.83963100  0.51655579  1
  O  O94  1  0.65100389  0.29792828  0.12586476  1
  O  O95  1  0.03088622  0.04423242  0.88618688  1
  O  O96  1  0.99823343  0.21938385  0.66400201  1
  O  O97  1  0.75612556  0.19398214  0.73489630  1
  O  O98  1  0.32290901  0.02363276  0.24167654  1
  O  O99  1  0.62658416  0.95749315  0.83465052  1
