# generated using pymatgen
data_Y2GaN3
_symmetry_space_group_name_H-M   'P 1'
_cell_length_a   6.52862707
_cell_length_b   6.39855333
_cell_length_c   5.13644171
_cell_angle_alpha   90.00000000
_cell_angle_beta   90.00000000
_cell_angle_gamma   119.34309290
_symmetry_Int_Tables_number   1
_chemical_formula_structural   Y2GaN3
_chemical_formula_sum   'Y4 Ga2 N6'
_cell_volume   187.03958944
_cell_formula_units_Z   2
loop_
 _symmetry_equiv_pos_site_id
 _symmetry_equiv_pos_as_xyz
  1  'x, y, z'
loop_
 _atom_site_type_symbol
 _atom_site_label
 _atom_site_symmetry_multiplicity
 _atom_site_fract_x
 _atom_site_fract_y
 _atom_site_fract_z
 _atom_site_occupancy
  Y  Y0  1  0.31888530  0.34113990  0.45293374  1
  Y  Y1  1  0.68111470  0.02225460  0.45293374  1
  Y  Y2  1  0.68111470  0.65886010  0.95293374  1
  Y  Y3  1  0.31888530  0.97774540  0.95293374  1
  Ga  Ga4  1  0.00000000  0.66174257  0.47858090  1
  Ga  Ga5  1  0.00000000  0.33825743  0.97858090  1
  N  N6  1  0.30582607  0.33080339  0.91436147  1
  N  N7  1  0.69417393  0.02497832  0.91436147  1
  N  N8  1  0.69417393  0.66919661  0.41436147  1
  N  N9  1  0.30582607  0.97502168  0.41436147  1
  N  N10  1  0.00000000  0.62689471  0.85882868  1
  N  N11  1  0.00000000  0.37310529  0.35882868  1
