# generated using pymatgen
data_Ca5(CN3)2
_symmetry_space_group_name_H-M   'P 1'
_cell_length_a   5.46405693
_cell_length_b   5.91666115
_cell_length_c   12.26328121
_cell_angle_alpha   90.00000254
_cell_angle_beta   97.62601624
_cell_angle_gamma   122.78011610
_symmetry_Int_Tables_number   1
_chemical_formula_structural   Ca5(CN3)2
_chemical_formula_sum   'Ca10 C4 N12'
_cell_volume   329.14651062
_cell_formula_units_Z   2
loop_
 _symmetry_equiv_pos_site_id
 _symmetry_equiv_pos_as_xyz
  1  'x, y, z'
loop_
 _atom_site_type_symbol
 _atom_site_label
 _atom_site_symmetry_multiplicity
 _atom_site_fract_x
 _atom_site_fract_y
 _atom_site_fract_z
 _atom_site_occupancy
  Ca  Ca0  1  0.00000000  0.40749923  0.75000000  1
  Ca  Ca1  1  -0.00000000  0.59250077  0.25000000  1
  Ca  Ca2  1  0.11810438  0.79605879  0.99376000  1
  Ca  Ca3  1  0.88189562  0.67795541  0.50624000  1
  Ca  Ca4  1  0.88189562  0.20394121  0.00624000  1
  Ca  Ca5  1  0.11810438  0.32204459  0.49376000  1
  Ca  Ca6  1  0.30579548  0.09594205  0.70809625  1
  Ca  Ca7  1  0.69420452  0.79014657  0.79190375  1
  Ca  Ca8  1  0.69420452  0.90405795  0.29190375  1
  Ca  Ca9  1  0.30579548  0.20985343  0.20809625  1
  C  C10  1  0.54787252  0.91694997  0.57586391  1
  C  C11  1  0.45212748  0.36907746  0.92413609  1
  C  C12  1  0.45212748  0.08305003  0.42413609  1
  C  C13  1  0.54787252  0.63092254  0.07586391  1
  N  N14  1  0.31560992  0.72266170  0.64075709  1
  N  N15  1  0.68439008  0.40705178  0.85924291  1
  N  N16  1  0.68439008  0.27733830  0.35924291  1
  N  N17  1  0.31560992  0.59294822  0.14075709  1
  N  N18  1  0.53948960  0.17924780  0.54828353  1
  N  N19  1  0.46051040  0.63975920  0.95171647  1
  N  N20  1  0.46051040  0.82075220  0.45171647  1
  N  N21  1  0.53948960  0.36024080  0.04828353  1
  N  N22  1  0.84351475  0.99307691  0.62470982  1
  N  N23  1  0.15648525  0.14956216  0.87529018  1
  N  N24  1  0.15648525  0.00692309  0.37529018  1
  N  N25  1  0.84351475  0.85043784  0.12470982  1
