# generated using pymatgen
data_Al2O3
_symmetry_space_group_name_H-M   'P 1'
_cell_length_a   10.26337432
_cell_length_b   10.84910415
_cell_length_c   10.12834984
_cell_angle_alpha   86.46946691
_cell_angle_beta   91.11685136
_cell_angle_gamma   89.04250044
_symmetry_Int_Tables_number   1
_chemical_formula_structural   Al2O3
_chemical_formula_sum   'Al40 O60'
_cell_volume   1125.24020518
_cell_formula_units_Z   20
loop_
 _symmetry_equiv_pos_site_id
 _symmetry_equiv_pos_as_xyz
  1  'x, y, z'
loop_
 _atom_site_type_symbol
 _atom_site_label
 _atom_site_symmetry_multiplicity
 _atom_site_fract_x
 _atom_site_fract_y
 _atom_site_fract_z
 _atom_site_occupancy
  Al  Al0  1  0.94421758  0.28136186  0.60058260  1
  Al  Al1  1  0.67675072  0.40620459  0.61318747  1
  Al  Al2  1  0.02734152  0.73726798  0.69777637  1
  Al  Al3  1  0.88806889  0.48668297  0.80528825  1
  Al  Al4  1  0.68411002  0.64409894  0.44048119  1
  Al  Al5  1  0.15150875  0.53938246  0.84629972  1
  Al  Al6  1  0.35110159  0.39612228  0.31042684  1
  Al  Al7  1  0.05934282  0.22590737  0.88548102  1
  Al  Al8  1  0.32860922  0.36576011  0.98739340  1
  Al  Al9  1  0.75987299  0.77798704  0.71980151  1
  Al  Al10  1  0.34460313  0.70358816  0.25121093  1
  Al  Al11  1  0.43260654  0.14159997  0.81601554  1
  Al  Al12  1  0.60417024  0.15049960  0.30300668  1
  Al  Al13  1  0.63746314  0.09159221  0.64146101  1
  Al  Al14  1  0.43001396  0.63452939  0.79356828  1
  Al  Al15  1  0.95619103  0.68313928  0.96306473  1
  Al  Al16  1  0.21561901  0.09003707  0.64488877  1
  Al  Al17  1  0.11384168  0.88357642  0.16983826  1
  Al  Al18  1  0.21814462  0.97691268  0.89186401  1
  Al  Al19  1  0.57306066  0.85715768  0.51410387  1
  Al  Al20  1  0.45786833  0.25286340  0.51266072  1
  Al  Al21  1  0.13716817  0.72193629  0.40111921  1
  Al  Al22  1  0.07905650  0.51204728  0.51490428  1
  Al  Al23  1  0.04074395  0.05260428  0.42965039  1
  Al  Al24  1  0.33354119  0.97407249  0.37357424  1
  Al  Al25  1  0.92272139  0.02219318  0.68298237  1
  Al  Al26  1  0.83451085  0.95099721  0.34518148  1
  Al  Al27  1  0.64774164  0.30515258  0.08057381  1
  Al  Al28  1  0.77946863  0.14497626  0.86125187  1
  Al  Al29  1  0.41015053  0.56191491  0.50928111  1
  Al  Al30  1  0.70365965  0.41047194  0.35477909  1
  Al  Al31  1  0.51339588  0.85262309  0.97778577  1
  Al  Al32  1  0.58501982  0.87545386  0.21396071  1
  Al  Al33  1  0.55152275  0.39719963  0.82416208  1
  Al  Al34  1  0.18645449  0.18535047  0.21243527  1
  Al  Al35  1  0.88537919  0.21431930  0.18030957  1
  Al  Al36  1  0.40346795  0.08609381  0.11603097  1
  Al  Al37  1  0.08133732  0.41105562  0.08292513  1
  Al  Al38  1  0.92016876  0.59430261  0.24811779  1
  Al  Al39  1  0.28449006  0.83652024  0.59183368  1
  O  O40  1  0.31387399  0.22713479  0.33011400  1
  O  O41  1  0.35045297  0.69403074  0.65032199  1
  O  O42  1  0.83252318  0.65808248  0.83577149  1
  O  O43  1  0.52522519  0.71269973  0.45386780  1
  O  O44  1  0.95316193  0.32655066  0.77243430  1
  O  O45  1  0.80406917  0.35400327  0.50870947  1
  O  O46  1  0.06924980  0.35740482  0.52112572  1
  O  O47  1  0.04240534  0.12929036  0.60663156  1
  O  O48  1  0.54618009  0.18064864  0.13089965  1
  O  O49  1  0.99455656  0.45580094  0.21503429  1
  O  O50  1  0.42173619  0.29206456  0.86216134  1
  O  O51  1  0.20518585  0.02493868  0.47835657  1
  O  O52  1  0.57942070  0.11191508  0.47618978  1
  O  O53  1  0.03174653  0.55902048  0.68812119  1
  O  O54  1  0.11253018  0.79369587  0.55907038  1
  O  O55  1  0.55482967  0.31173195  0.34428276  1
  O  O56  1  0.42239826  0.93044408  0.53076769  1
  O  O57  1  0.29004964  0.20306005  0.06573982  1
  O  O58  1  0.72827539  0.42662738  0.77910099  1
  O  O59  1  0.22525719  0.58552130  0.47344781  1
  O  O60  1  0.48167107  0.00155437  0.26871747  1
  O  O61  1  0.11548453  0.91262960  0.00339295  1
  O  O62  1  0.23910260  0.01277938  0.21365098  1
  O  O63  1  0.79756215  0.14350773  0.67466962  1
  O  O64  1  0.60606907  0.09604064  0.82040043  1
  O  O65  1  0.69107440  0.85762041  0.35792778  1
  O  O66  1  0.61048279  0.49805674  0.48064733  1
  O  O67  1  0.76471948  0.69346856  0.57961213  1
  O  O68  1  0.29265878  0.80986884  0.38616580  1
  O  O69  1  0.39560383  0.99815535  0.95200925  1
  O  O70  1  0.64763733  0.91051561  0.05992518  1
  O  O71  1  0.55586251  0.42204969  0.99803886  1
  O  O72  1  0.76220814  0.33214045  0.21417932  1
  O  O73  1  0.91379312  0.86066164  0.73219827  1
  O  O74  1  0.99186081  0.62928223  0.40534498  1
  O  O75  1  0.03015764  0.24654416  0.06889515  1
  O  O76  1  0.00003836  0.91912438  0.29599561  1
  O  O77  1  0.40366203  0.55644079  0.30320223  1
  O  O78  1  0.16480824  0.37288460  0.90790979  1
  O  O79  1  0.75584836  0.57110627  0.30453026  1
  O  O80  1  0.32023738  0.54321451  0.89484725  1
  O  O81  1  0.99243230  0.51412550  0.95350004  1
  O  O82  1  0.50443065  0.51581145  0.70517783  1
  O  O83  1  0.77266734  0.09259693  0.26464061  1
  O  O84  1  0.37617967  0.15012353  0.64428890  1
  O  O85  1  0.17154359  0.72750802  0.21391378  1
  O  O86  1  0.45256351  0.78715339  0.14393480  1
  O  O87  1  0.89380304  0.99259315  0.50000945  1
  O  O88  1  0.25429360  0.41454231  0.14615518  1
  O  O89  1  0.94448852  0.08637551  0.85887820  1
  O  O90  1  0.10024216  0.70422550  0.85883259  1
  O  O91  1  0.23751927  0.93220895  0.72777562  1
  O  O92  1  0.77738248  0.22484176  0.00541874  1
  O  O93  1  0.66224206  0.91276573  0.65114557  1
  O  O94  1  0.19727948  0.13465882  0.82484892  1
  O  O95  1  0.92043725  0.71421641  0.12161990  1
  O  O96  1  0.52747534  0.75012987  0.85650504  1
  O  O97  1  0.57607184  0.28012199  0.64803718  1
  O  O98  1  0.37088475  0.39607525  0.49277213  1
  O  O99  1  0.02749047  0.17001760  0.29838330  1
