# generated using pymatgen
data_Al2O3
_symmetry_space_group_name_H-M   'P 1'
_cell_length_a   10.36267690
_cell_length_b   10.74736456
_cell_length_c   9.99755088
_cell_angle_alpha   91.23899624
_cell_angle_beta   90.16667649
_cell_angle_gamma   90.05799269
_symmetry_Int_Tables_number   1
_chemical_formula_structural   Al2O3
_chemical_formula_sum   'Al40 O60'
_cell_volume   1113.17622505
_cell_formula_units_Z   20
loop_
 _symmetry_equiv_pos_site_id
 _symmetry_equiv_pos_as_xyz
  1  'x, y, z'
loop_
 _atom_site_type_symbol
 _atom_site_label
 _atom_site_symmetry_multiplicity
 _atom_site_fract_x
 _atom_site_fract_y
 _atom_site_fract_z
 _atom_site_occupancy
  Al  Al0  1  0.89580934  0.23268736  0.59807397  1
  Al  Al1  1  0.77500004  0.67129651  0.29594285  1
  Al  Al2  1  0.30039313  0.42947310  0.25288887  1
  Al  Al3  1  0.19305111  0.45513255  0.89968564  1
  Al  Al4  1  0.49948442  0.71696462  0.59240579  1
  Al  Al5  1  0.03938766  0.31285243  0.12756862  1
  Al  Al6  1  0.33558345  0.01206001  0.83180917  1
  Al  Al7  1  0.25220270  0.69836458  0.11489094  1
  Al  Al8  1  0.04470944  0.88618800  0.77738007  1
  Al  Al9  1  0.98564674  0.83169628  0.20518528  1
  Al  Al10  1  0.92624929  0.36129823  0.88762284  1
  Al  Al11  1  0.33214534  0.72663734  0.37968026  1
  Al  Al12  1  0.00731590  0.60639980  0.07487503  1
  Al  Al13  1  0.36540933  0.46713684  0.64207461  1
  Al  Al14  1  0.93360617  0.16317777  0.33336104  1
  Al  Al15  1  0.61103294  0.28029331  0.57165646  1
  Al  Al16  1  0.26105715  0.76052229  0.67804407  1
  Al  Al17  1  0.66901189  0.05477250  0.15289040  1
  Al  Al18  1  0.59776697  0.40893195  0.82871670  1
  Al  Al19  1  0.54756801  0.32034547  0.09468118  1
  Al  Al20  1  0.50047777  0.61570989  0.18156767  1
  Al  Al21  1  0.12882645  0.93748970  0.48601952  1
  Al  Al22  1  0.23035025  0.15281029  0.31850325  1
  Al  Al23  1  0.58887420  0.87395498  0.36122832  1
  Al  Al24  1  0.74404414  0.52179804  0.02138290  1
  Al  Al25  1  0.02201366  0.57987693  0.67892411  1
  Al  Al26  1  0.75744961  0.76840240  0.71307491  1
  Al  Al27  1  0.28996946  0.19496185  0.60076064  1
  Al  Al28  1  0.89250350  0.06152884  0.02282204  1
  Al  Al29  1  0.57820597  0.01529661  0.59388319  1
  Al  Al30  1  0.85552085  0.93642549  0.49634542  1
  Al  Al31  1  0.49180098  0.16809502  0.35052061  1
  Al  Al32  1  0.09480453  0.17419396  0.86478839  1
  Al  Al33  1  0.39326436  0.94446251  0.15727078  1
  Al  Al34  1  0.61422892  0.12633248  0.84668954  1
  Al  Al35  1  0.76443975  0.53248975  0.57068042  1
  Al  Al36  1  0.03500657  0.40031423  0.40616277  1
  Al  Al37  1  0.50954138  0.69223676  0.89640633  1
  Al  Al38  1  0.80684676  0.79474813  0.96389286  1
  Al  Al39  1  0.73543328  0.38345450  0.30881814  1
  O  O40  1  0.94232034  0.22165860  0.00315183  1
  O  O41  1  0.71602850  0.06336611  0.97230163  1
  O  O42  1  0.36434353  0.05722615  0.28331569  1
  O  O43  1  0.86246344  0.63437577  0.66828177  1
  O  O44  1  0.65800259  0.77672290  0.87332025  1
  O  O45  1  0.11187408  0.70893276  0.73579550  1
  O  O46  1  0.69500562  0.39600041  0.13606778  1
  O  O47  1  0.13045578  0.40649283  0.25664515  1
  O  O48  1  0.29812239  0.82533586  0.23411775  1
  O  O49  1  0.72911242  0.91001333  0.62030043  1
  O  O50  1  0.26923343  0.35255965  0.57402299  1
  O  O51  1  0.24778999  0.14935370  0.76963818  1
  O  O52  1  0.64377915  0.64750980  0.62480231  1
  O  O53  1  0.96842191  0.23888027  0.75741035  1
  O  O54  1  0.85429891  0.10293193  0.48175875  1
  O  O55  1  0.03104793  0.02129423  0.90248057  1
  O  O56  1  0.44736736  0.44721401  0.15536082  1
  O  O57  1  0.32847289  0.49445055  0.80951082  1
  O  O58  1  0.01065057  0.92454741  0.35170790  1
  O  O59  1  0.54788573  0.27314403  0.91868152  1
  O  O60  1  0.20719979  0.08647213  0.48472514  1
  O  O61  1  0.04231765  0.46993812  0.80860700  1
  O  O62  1  0.36689342  0.61430626  0.54659160  1
  O  O63  1  0.89736811  0.33206950  0.29760054  1
  O  O64  1  0.02835447  0.52439079  0.51449392  1
  O  O65  1  0.56837734  0.91956482  0.18294625  1
  O  O66  1  0.17728533  0.56088239  0.03664267  1
  O  O67  1  0.00180570  0.92326873  0.60420877  1
  O  O68  1  0.09536932  0.76597338  0.08712873  1
  O  O69  1  0.08267149  0.16542473  0.22846067  1
  O  O70  1  0.77935892  0.36427448  0.58340051  1
  O  O71  1  0.87093831  0.89594201  0.08860777  1
  O  O72  1  0.45967365  0.16985338  0.54638086  1
  O  O73  1  0.29875538  0.59733244  0.26851750  1
  O  O74  1  0.53356528  0.40654029  0.66392742  1
  O  O75  1  0.02558383  0.25597207  0.48287468  1
  O  O76  1  0.86078788  0.64198427  0.98285649  1
  O  O77  1  0.94860756  0.44616356  0.05858430  1
  O  O78  1  0.58208236  0.54418578  0.92776492  1
  O  O79  1  0.22345651  0.90859413  0.75423958  1
  O  O80  1  0.75973284  0.82209863  0.37525953  1
  O  O81  1  0.67254762  0.63572533  0.15525908  1
  O  O82  1  0.88633826  0.83618098  0.81796268  1
  O  O83  1  0.61154641  0.30077013  0.39426376  1
  O  O84  1  0.16051965  0.30496781  0.97448726  1
  O  O85  1  0.49741497  0.02498423  0.76689392  1
  O  O86  1  0.34206803  0.28171137  0.31748863  1
  O  O87  1  0.60743067  0.03979440  0.40704340  1
  O  O88  1  0.82849828  0.09889966  0.20224596  1
  O  O89  1  0.74822458  0.53559769  0.39214887  1
  O  O90  1  0.50809758  0.71320055  0.33791401  1
  O  O91  1  0.93581114  0.67218840  0.23845452  1
  O  O92  1  0.41787305  0.69872466  0.04749156  1
  O  O93  1  0.67678480  0.16322023  0.68290188  1
  O  O94  1  0.35228578  0.98884161  0.99958117  1
  O  O95  1  0.49799730  0.86760633  0.52508652  1
  O  O96  1  0.23377450  0.80703545  0.50192389  1
  O  O97  1  0.76602985  0.41247584  0.86839395  1
  O  O98  1  0.55576784  0.17758183  0.17482283  1
  O  O99  1  0.42077059  0.74218503  0.75430270  1
