# generated using pymatgen
data_Si2SeN2
_symmetry_space_group_name_H-M   'P 1'
_cell_length_a   6.10958224
_cell_length_b   5.62427929
_cell_length_c   4.91348492
_cell_angle_alpha   90.00000000
_cell_angle_beta   90.00000000
_cell_angle_gamma   117.40540679
_symmetry_Int_Tables_number   1
_chemical_formula_structural   Si2SeN2
_chemical_formula_sum   'Si4 Se2 N4'
_cell_volume   149.88888965
_cell_formula_units_Z   2
loop_
 _symmetry_equiv_pos_site_id
 _symmetry_equiv_pos_as_xyz
  1  'x, y, z'
loop_
 _atom_site_type_symbol
 _atom_site_label
 _atom_site_symmetry_multiplicity
 _atom_site_fract_x
 _atom_site_fract_y
 _atom_site_fract_z
 _atom_site_occupancy
  Si  Si0  1  0.62327142  0.16661594  0.90889571  1
  Si  Si1  1  0.37672858  0.54334452  0.90889571  1
  Si  Si2  1  0.37672858  0.83338406  0.40889571  1
  Si  Si3  1  0.62327142  0.45665548  0.40889571  1
  Se  Se4  1  1.00000000  0.77971437  0.26733929  1
  Se  Se5  1  0.00000000  0.22028563  0.76733929  1
  N  N6  1  0.55271234  0.14908399  0.25423515  1
  N  N7  1  0.44728766  0.59637164  0.25423515  1
  N  N8  1  0.44728766  0.85091601  0.75423515  1
  N  N9  1  0.55271234  0.40362836  0.75423515  1
