# generated using pymatgen
data_Si3N4
_symmetry_space_group_name_H-M   'P 1'
_cell_length_a   11.32069680
_cell_length_b   10.89753924
_cell_length_c   10.43716944
_cell_angle_alpha   89.09565338
_cell_angle_beta   88.75446203
_cell_angle_gamma   90.51746901
_symmetry_Int_Tables_number   1
_chemical_formula_structural   Si3N4
_chemical_formula_sum   'Si45 N60'
_cell_volume   1287.08879925
_cell_formula_units_Z   15
loop_
 _symmetry_equiv_pos_site_id
 _symmetry_equiv_pos_as_xyz
  1  'x, y, z'
loop_
 _atom_site_type_symbol
 _atom_site_label
 _atom_site_symmetry_multiplicity
 _atom_site_fract_x
 _atom_site_fract_y
 _atom_site_fract_z
 _atom_site_occupancy
  Si  Si0  1  0.67975158  0.75037180  0.68361032  1
  Si  Si1  1  0.55458653  0.55431139  0.31980149  1
  Si  Si2  1  0.87307159  0.56021258  0.68586737  1
  Si  Si3  1  0.12342693  0.59223922  0.55600751  1
  Si  Si4  1  0.22314954  0.07095857  0.56828064  1
  Si  Si5  1  0.50248438  0.53334141  0.65320231  1
  Si  Si6  1  0.35999848  0.41877079  0.15592074  1
  Si  Si7  1  0.88913205  0.21278576  0.70403909  1
  Si  Si8  1  0.41482769  0.75069444  0.83835724  1
  Si  Si9  1  0.01452599  0.17826159  0.43810491  1
  Si  Si10  1  0.25194676  0.64686081  0.04265591  1
  Si  Si11  1  0.61777016  0.71771784  0.88493415  1
  Si  Si12  1  0.70533320  0.38386027  0.08868599  1
  Si  Si13  1  0.42111553  0.29385720  0.38642867  1
  Si  Si14  1  0.55166604  0.28521448  0.60346702  1
  Si  Si15  1  0.14881310  0.31939120  0.22490193  1
  Si  Si16  1  0.84589912  0.52285311  0.26715609  1
  Si  Si17  1  0.57253853  0.01316276  0.74554454  1
  Si  Si18  1  0.08853792  0.62841845  0.26233736  1
  Si  Si19  1  0.20980749  0.06340354  0.05550145  1
  Si  Si20  1  0.10646135  0.92800681  0.48142698  1
  Si  Si21  1  0.48174248  0.54206144  0.02803814  1
  Si  Si22  1  0.63941568  0.81602095  0.34205556  1
  Si  Si23  1  0.09245987  0.36823410  0.85710916  1
  Si  Si24  1  0.79316985  0.96003420  0.78685688  1
  Si  Si25  1  0.06064276  0.64175894  0.85960460  1
  Si  Si26  1  0.84496075  0.79540226  0.25228197  1
  Si  Si27  1  0.66471339  0.84116011  0.05699481  1
  Si  Si28  1  0.49429773  0.05830028  0.47289436  1
  Si  Si29  1  0.11337075  0.33293228  0.61987527  1
  Si  Si30  1  0.86841175  0.98481772  0.34570569  1
  Si  Si31  1  0.04421223  0.97122613  0.75672140  1
  Si  Si32  1  0.85993115  0.20453046  0.19296297  1
  Si  Si33  1  0.29008442  0.96389595  0.84239551  1
  Si  Si34  1  0.66393598  0.22493015  0.34560647  1
  Si  Si35  1  0.88761989  0.54549620  0.96280863  1
  Si  Si36  1  0.23758778  0.84592304  0.24915348  1
  Si  Si37  1  0.92216417  0.40187788  0.45745235  1
  Si  Si38  1  0.77005647  0.18851707  0.90991307  1
  Si  Si39  1  0.93261049  0.78617661  0.67994474  1
  Si  Si40  1  0.28612627  0.52676361  0.67097393  1
  Si  Si41  1  0.73332638  0.58948951  0.50317238  1
  Si  Si42  1  0.66523758  0.44202900  0.84145068  1
  Si  Si43  1  0.44668195  0.82765204  0.30065015  1
  Si  Si44  1  0.90081453  0.85254392  0.93920219  1
  N  N45  1  0.68536344  0.06099789  0.85806642  1
  N  N46  1  0.67733225  0.90782165  0.68131508  1
  N  N47  1  0.19057588  0.03092169  0.73359642  1
  N  N48  1  0.18232065  0.72092614  0.16785418  1
  N  N49  1  0.85998411  0.17007023  0.03846642  1
  N  N50  1  0.57364737  0.84154151  0.18341351  1
  N  N51  1  0.37280511  0.17343179  0.83818066  1
  N  N52  1  0.12739406  0.67941768  0.41621453  1
  N  N53  1  0.91273830  0.05514338  0.72742562  1
  N  N54  1  0.71459879  0.57379332  0.34085798  1
  N  N55  1  0.11882862  0.23724188  0.97592441  1
  N  N56  1  0.60900463  0.56195056  0.93599866  1
  N  N57  1  0.12608623  0.48040950  0.19788791  1
  N  N58  1  0.38670973  0.27443710  0.82141772  1
  N  N59  1  0.35438371  0.06691876  0.50618529  1
  N  N60  1  0.19177853  0.23796834  0.08258549  1
  N  N61  1  0.81439861  0.49619837  0.10123607  1
  N  N62  1  0.01381757  0.63342024  0.69458509  1
  N  N63  1  0.46256714  0.53948455  0.19675805  1
  N  N64  1  0.52565185  0.70165030  0.36851414  1
  N  N65  1  0.61360568  0.63028965  0.59749611  1
  N  N66  1  0.83050304  0.48318089  0.55740272  1
  N  N67  1  0.39305100  0.45720785  0.56975998  1
  N  N68  1  0.46172449  0.11039198  0.07483373  1
  N  N69  1  0.68602709  0.31983227  0.94486345  1
  N  N70  1  0.51899699  0.16960986  0.35238079  1
  N  N71  1  0.90375944  0.25157860  0.52529731  1
  N  N72  1  0.93253740  0.66152858  0.26081057  1
  N  N73  1  0.81214407  0.84405554  0.09634854  1
  N  N74  1  0.22935070  0.49676858  0.10524797  1
  N  N75  1  0.58161502  0.40440329  0.71339840  1
  N  N76  1  0.08952246  0.12771898  0.94795479  1
  N  N77  1  0.63526525  0.34207748  0.46252862  1
  N  N78  1  0.01096825  0.29854204  0.74343318  1
  N  N79  1  0.19004755  0.70643114  0.89670373  1
  N  N80  1  0.26517584  0.80055030  0.84167545  1
  N  N81  1  0.14122458  0.20485441  0.52738739  1
  N  N82  1  0.78317650  0.10935004  0.31665552  1
  N  N83  1  0.56674926  0.12477059  0.61861736  1
  N  N84  1  0.39736064  0.62055563  0.73178772  1
  N  N85  1  0.55781726  0.10083658  0.09232765  1
  N  N86  1  0.39553078  0.66909055  0.99306003  1
  N  N87  1  0.80981073  0.50597237  0.82347022  1
  N  N88  1  0.99347715  0.02177292  0.41613045  1
  N  N89  1  0.93646229  0.69610832  0.94102617  1
  N  N90  1  0.16501700  0.80749570  0.39702103  1
  N  N91  1  0.30389472  0.32649656  0.28303158  1
  N  N92  1  0.40430433  0.32364130  0.55445987  1
  N  N93  1  0.43951464  0.39089370  0.01907845  1
  N  N94  1  0.20072865  0.40635859  0.74002294  1
  N  N95  1  0.20751226  0.98385341  0.19066334  1
  N  N96  1  0.81461185  0.70660199  0.60500629  1
  N  N97  1  0.01018106  0.25024214  0.28290889  1
  N  N98  1  0.44132487  0.93214140  0.80107625  1
  N  N99  1  0.06639183  0.44860462  0.51173543  1
  N  N100  1  0.04315736  0.87013369  0.61831648  1
  N  N101  1  0.54719785  0.40093663  0.37314668  1
  N  N102  1  0.73593603  0.30520125  0.22259852  1
  N  N103  1  0.03306128  0.49522218  0.92757015  1
  N  N104  1  0.53891192  0.92155569  0.40930850  1
