# generated using pymatgen
data_Sn4CN4
_symmetry_space_group_name_H-M   'P 1'
_cell_length_a   10.70318302
_cell_length_b   3.30113617
_cell_length_c   19.77223561
_cell_angle_alpha   90.00000000
_cell_angle_beta   90.00000000
_cell_angle_gamma   90.00000000
_symmetry_Int_Tables_number   1
_chemical_formula_structural   Sn4CN4
_chemical_formula_sum   'Sn16 C4 N16'
_cell_volume   698.60576923
_cell_formula_units_Z   4
loop_
 _symmetry_equiv_pos_site_id
 _symmetry_equiv_pos_as_xyz
  1  'x, y, z'
loop_
 _atom_site_type_symbol
 _atom_site_label
 _atom_site_symmetry_multiplicity
 _atom_site_fract_x
 _atom_site_fract_y
 _atom_site_fract_z
 _atom_site_occupancy
  Sn  Sn0  1  0.13847492  0.25000000  0.16234295  1
  Sn  Sn1  1  0.63847492  0.25000000  0.33765705  1
  Sn  Sn2  1  0.86152508  0.75000000  0.83765705  1
  Sn  Sn3  1  0.36152508  0.75000000  0.66234295  1
  Sn  Sn4  1  0.89556386  0.25000000  0.06061324  1
  Sn  Sn5  1  0.39556386  0.25000000  0.43938676  1
  Sn  Sn6  1  0.10443614  0.75000000  0.93938676  1
  Sn  Sn7  1  0.60443614  0.75000000  0.56061324  1
  Sn  Sn8  1  0.42157438  0.25000000  0.84317571  1
  Sn  Sn9  1  0.92157438  0.25000000  0.65682429  1
  Sn  Sn10  1  0.57842562  0.75000000  0.15682429  1
  Sn  Sn11  1  0.07842562  0.75000000  0.34317571  1
  Sn  Sn12  1  0.14570482  0.25000000  0.79042972  1
  Sn  Sn13  1  0.64570482  0.25000000  0.70957028  1
  Sn  Sn14  1  0.85429518  0.75000000  0.20957028  1
  Sn  Sn15  1  0.35429518  0.75000000  0.29042972  1
  C  C16  1  0.37526393  0.25000000  0.08286947  1
  C  C17  1  0.87526393  0.25000000  0.41713053  1
  C  C18  1  0.62473607  0.75000000  0.91713053  1
  C  C19  1  0.12473607  0.75000000  0.58286947  1
  N  N20  1  0.76632553  0.25000000  0.14745806  1
  N  N21  1  0.26632553  0.25000000  0.35254194  1
  N  N22  1  0.23367447  0.75000000  0.85254194  1
  N  N23  1  0.73367447  0.75000000  0.64745806  1
  N  N24  1  0.99474776  0.25000000  0.87234849  1
  N  N25  1  0.49474776  0.25000000  0.62765151  1
  N  N26  1  0.00525224  0.75000000  0.12765151  1
  N  N27  1  0.50525224  0.75000000  0.37234849  1
  N  N28  1  0.26255454  0.25000000  0.07381212  1
  N  N29  1  0.76255454  0.25000000  0.42618788  1
  N  N30  1  0.73744546  0.75000000  0.92618788  1
  N  N31  1  0.23744546  0.75000000  0.57381212  1
  N  N32  1  0.49153411  0.25000000  0.09152130  1
  N  N33  1  0.99153411  0.25000000  0.40847870  1
  N  N34  1  0.50846589  0.75000000  0.90847870  1
  N  N35  1  0.00846589  0.75000000  0.59152130  1
