# generated using pymatgen
data_NiGe7N10
_symmetry_space_group_name_H-M   'P 1'
_cell_length_a   6.91798037
_cell_length_b   7.42150038
_cell_length_c   10.23227758
_cell_angle_alpha   90.00000000
_cell_angle_beta   101.94686379
_cell_angle_gamma   90.00000000
_symmetry_Int_Tables_number   1
_chemical_formula_structural   NiGe7N10
_chemical_formula_sum   'Ni2 Ge14 N20'
_cell_volume   513.96454621
_cell_formula_units_Z   2
loop_
 _symmetry_equiv_pos_site_id
 _symmetry_equiv_pos_as_xyz
  1  'x, y, z'
loop_
 _atom_site_type_symbol
 _atom_site_label
 _atom_site_symmetry_multiplicity
 _atom_site_fract_x
 _atom_site_fract_y
 _atom_site_fract_z
 _atom_site_occupancy
  Ni  Ni0  1  0.95141260  0.87889746  0.67849478  1
  Ni  Ni1  1  0.95141260  0.12110254  0.17849478  1
  Ge  Ge2  1  0.54784905  0.98168105  0.82132369  1
  Ge  Ge3  1  0.54784905  0.01831895  0.32132369  1
  Ge  Ge4  1  0.33718343  0.01580509  0.02420104  1
  Ge  Ge5  1  0.33718343  0.98419491  0.52420104  1
  Ge  Ge6  1  0.12032243  0.39499865  0.07346903  1
  Ge  Ge7  1  0.12032243  0.60500135  0.57346903  1
  Ge  Ge8  1  0.65528018  0.35387208  0.98909999  1
  Ge  Ge9  1  0.65528018  0.64612792  0.48909999  1
  Ge  Ge10  1  0.84662718  0.61839978  0.81766226  1
  Ge  Ge11  1  0.84662718  0.38160022  0.31766226  1
  Ge  Ge12  1  0.30571070  0.62908536  0.88137932  1
  Ge  Ge13  1  0.30571070  0.37091464  0.38137932  1
  Ge  Ge14  1  0.49149191  0.36373015  0.68479862  1
  Ge  Ge15  1  0.49149191  0.63626985  0.18479862  1
  N  N16  1  0.77391097  0.85821691  0.80369493  1
  N  N17  1  0.77391097  0.14178309  0.30369493  1
  N  N18  1  0.54456562  0.13450006  0.96741378  1
  N  N19  1  0.54456562  0.86549994  0.46741378  1
  N  N20  1  0.32125263  0.87312868  0.86828254  1
  N  N21  1  0.32125263  0.12687132  0.36828254  1
  N  N22  1  0.12599097  0.14845041  0.05129806  1
  N  N23  1  0.12599097  0.85154959  0.55129806  1
  N  N24  1  0.29531513  0.51378273  0.72125746  1
  N  N25  1  0.29531513  0.48621727  0.22125746  1
  N  N26  1  0.44811071  0.12157110  0.67266645  1
  N  N27  1  0.44811071  0.87842890  0.17266645  1
  N  N28  1  0.87900137  0.36274867  0.13191980  1
  N  N29  1  0.87900137  0.63725133  0.63191980  1
  N  N30  1  0.07900126  0.57448112  0.94278289  1
  N  N31  1  0.07900126  0.42551888  0.44278289  1
  N  N32  1  0.70985745  0.40593439  0.82178020  1
  N  N33  1  0.70985745  0.59406561  0.32178020  1
  N  N34  1  0.50941442  0.55026777  0.01777517  1
  N  N35  1  0.50941442  0.44973223  0.51777517  1
