# generated using pymatgen
data_CoGe7N10
_symmetry_space_group_name_H-M   'P 1'
_cell_length_a   6.84741311
_cell_length_b   7.44678291
_cell_length_c   10.28667873
_cell_angle_alpha   90.00000000
_cell_angle_beta   103.57646814
_cell_angle_gamma   90.00000000
_symmetry_Int_Tables_number   1
_chemical_formula_structural   CoGe7N10
_chemical_formula_sum   'Co2 Ge14 N20'
_cell_volume   509.87339609
_cell_formula_units_Z   2
loop_
 _symmetry_equiv_pos_site_id
 _symmetry_equiv_pos_as_xyz
  1  'x, y, z'
loop_
 _atom_site_type_symbol
 _atom_site_label
 _atom_site_symmetry_multiplicity
 _atom_site_fract_x
 _atom_site_fract_y
 _atom_site_fract_z
 _atom_site_occupancy
  Co  Co0  1  0.99974983  0.87520061  0.70671460  1
  Co  Co1  1  0.99974983  0.12479939  0.20671460  1
  Ge  Ge2  1  0.54251938  0.98104976  0.81468323  1
  Ge  Ge3  1  0.54251938  0.01895024  0.31468323  1
  Ge  Ge4  1  0.32940971  0.01667475  0.01716992  1
  Ge  Ge5  1  0.32940971  0.98332525  0.51716992  1
  Ge  Ge6  1  0.11598721  0.39600490  0.07365734  1
  Ge  Ge7  1  0.11598721  0.60399510  0.57365734  1
  Ge  Ge8  1  0.65509998  0.35005225  0.98873804  1
  Ge  Ge9  1  0.65509998  0.64994775  0.48873804  1
  Ge  Ge10  1  0.84140673  0.62004778  0.81829305  1
  Ge  Ge11  1  0.84140673  0.37995222  0.31829305  1
  Ge  Ge12  1  0.30326024  0.62599715  0.87928810  1
  Ge  Ge13  1  0.30326024  0.37400285  0.37928810  1
  Ge  Ge14  1  0.49322528  0.36252225  0.68246893  1
  Ge  Ge15  1  0.49322528  0.63747775  0.18246893  1
  N  N16  1  0.77546140  0.85824102  0.81597326  1
  N  N17  1  0.77546140  0.14175898  0.31597326  1
  N  N18  1  0.53273367  0.13429303  0.95823317  1
  N  N19  1  0.53273367  0.86570697  0.45823317  1
  N  N20  1  0.28981898  0.87587374  0.85305669  1
  N  N21  1  0.28981898  0.12412626  0.35305669  1
  N  N22  1  0.13035631  0.14974833  0.05776049  1
  N  N23  1  0.13035631  0.85025167  0.55776049  1
  N  N24  1  0.29788657  0.51211081  0.72038666  1
  N  N25  1  0.29788657  0.48788919  0.22038666  1
  N  N26  1  0.44595532  0.12200427  0.66444105  1
  N  N27  1  0.44595532  0.87799573  0.16444105  1
  N  N28  1  0.87948747  0.35688086  0.13583535  1
  N  N29  1  0.87948747  0.64311914  0.63583535  1
  N  N30  1  0.08024521  0.57173658  0.94283814  1
  N  N31  1  0.08024521  0.42826342  0.44283814  1
  N  N32  1  0.71321376  0.40178159  0.82347268  1
  N  N33  1  0.71321376  0.59821841  0.32347268  1
  N  N34  1  0.51648495  0.55441142  0.01628828  1
  N  N35  1  0.51648495  0.44558858  0.51628828  1
