# generated using pymatgen
data_SrSn7N10
_symmetry_space_group_name_H-M   'P 1'
_cell_length_a   7.84515851
_cell_length_b   8.04987974
_cell_length_c   11.45072432
_cell_angle_alpha   90.00000000
_cell_angle_beta   105.74015429
_cell_angle_gamma   90.00000000
_symmetry_Int_Tables_number   1
_chemical_formula_structural   SrSn7N10
_chemical_formula_sum   'Sr2 Sn14 N20'
_cell_volume   696.02630716
_cell_formula_units_Z   2
loop_
 _symmetry_equiv_pos_site_id
 _symmetry_equiv_pos_as_xyz
  1  'x, y, z'
loop_
 _atom_site_type_symbol
 _atom_site_label
 _atom_site_symmetry_multiplicity
 _atom_site_fract_x
 _atom_site_fract_y
 _atom_site_fract_z
 _atom_site_occupancy
  Sr  Sr0  1  0.96896119  0.97197251  0.67890369  1
  Sr  Sr1  1  0.96896119  0.02802749  0.17890369  1
  Sn  Sn2  1  0.54226722  0.96982127  0.82208901  1
  Sn  Sn3  1  0.54226722  0.03017873  0.32208901  1
  Sn  Sn4  1  0.34159997  0.02419611  0.01667915  1
  Sn  Sn5  1  0.34159997  0.97580389  0.51667915  1
  Sn  Sn6  1  0.11415951  0.39413651  0.07065334  1
  Sn  Sn7  1  0.11415951  0.60586349  0.57065334  1
  Sn  Sn8  1  0.66550489  0.35134213  0.99655080  1
  Sn  Sn9  1  0.66550489  0.64865787  0.49655080  1
  Sn  Sn10  1  0.84438209  0.61976767  0.81217398  1
  Sn  Sn11  1  0.84438209  0.38023233  0.31217398  1
  Sn  Sn12  1  0.30067301  0.62358441  0.88141989  1
  Sn  Sn13  1  0.30067301  0.37641559  0.38141989  1
  Sn  Sn14  1  0.48764225  0.36441251  0.68713086  1
  Sn  Sn15  1  0.48764225  0.63558749  0.18713086  1
  N  N16  1  0.76479075  0.86065763  0.80590786  1
  N  N17  1  0.76479075  0.13934237  0.30590786  1
  N  N18  1  0.57712468  0.11069577  0.98202379  1
  N  N19  1  0.57712468  0.88930423  0.48202379  1
  N  N20  1  0.30281368  0.87816428  0.85618316  1
  N  N21  1  0.30281368  0.12183572  0.35618316  1
  N  N22  1  0.12558767  0.14908929  0.02908315  1
  N  N23  1  0.12558767  0.85091071  0.52908315  1
  N  N24  1  0.29030449  0.50619781  0.72233373  1
  N  N25  1  0.29030449  0.49380219  0.22233373  1
  N  N26  1  0.42263828  0.11858819  0.67360445  1
  N  N27  1  0.42263828  0.88141181  0.17360445  1
  N  N28  1  0.89330320  0.35989395  0.13846957  1
  N  N29  1  0.89330320  0.64010605  0.63846957  1
  N  N30  1  0.08077299  0.58529894  0.94450478  1
  N  N31  1  0.08077299  0.41470106  0.44450478  1
  N  N32  1  0.71274829  0.40087987  0.82857969  1
  N  N33  1  0.71274829  0.59912013  0.32857969  1
  N  N34  1  0.50702484  0.54376845  0.02300911  1
  N  N35  1  0.50702484  0.45623155  0.52300911  1
