# generated using pymatgen
data_NaPbN
_symmetry_space_group_name_H-M   'P 1'
_cell_length_a   11.50006573
_cell_length_b   3.48794217
_cell_length_c   6.27167482
_cell_angle_alpha   90.00000000
_cell_angle_beta   90.00000000
_cell_angle_gamma   90.00000000
_symmetry_Int_Tables_number   1
_chemical_formula_structural   NaPbN
_chemical_formula_sum   'Na4 Pb4 N4'
_cell_volume   251.56668729
_cell_formula_units_Z   4
loop_
 _symmetry_equiv_pos_site_id
 _symmetry_equiv_pos_as_xyz
  1  'x, y, z'
loop_
 _atom_site_type_symbol
 _atom_site_label
 _atom_site_symmetry_multiplicity
 _atom_site_fract_x
 _atom_site_fract_y
 _atom_site_fract_z
 _atom_site_occupancy
  Na  Na0  1  0.60550241  0.25000000  0.99605696  1
  Na  Na1  1  0.10550241  0.25000000  0.50394304  1
  Na  Na2  1  0.39449759  0.75000000  0.00394304  1
  Na  Na3  1  0.89449759  0.75000000  0.49605696  1
  Pb  Pb4  1  0.62364557  0.25000000  0.51844866  1
  Pb  Pb5  1  0.12364557  0.25000000  0.98155134  1
  Pb  Pb6  1  0.37635443  0.75000000  0.48155134  1
  Pb  Pb7  1  0.87635443  0.75000000  0.01844866  1
  N  N8  1  0.96167354  0.25000000  0.21189856  1
  N  N9  1  0.46167354  0.25000000  0.28810144  1
  N  N10  1  0.03832646  0.75000000  0.78810144  1
  N  N11  1  0.53832646  0.75000000  0.71189856  1
