# generated using pymatgen
data_Bi4Se3N2
_symmetry_space_group_name_H-M   'P 1'
_cell_length_a   7.18223459
_cell_length_b   15.75968660
_cell_length_c   4.03448007
_cell_angle_alpha   90.00000000
_cell_angle_beta   90.00000000
_cell_angle_gamma   90.00000000
_symmetry_Int_Tables_number   1
_chemical_formula_structural   Bi4Se3N2
_chemical_formula_sum   'Bi8 Se6 N4'
_cell_volume   456.66185597
_cell_formula_units_Z   2
loop_
 _symmetry_equiv_pos_site_id
 _symmetry_equiv_pos_as_xyz
  1  'x, y, z'
loop_
 _atom_site_type_symbol
 _atom_site_label
 _atom_site_symmetry_multiplicity
 _atom_site_fract_x
 _atom_site_fract_y
 _atom_site_fract_z
 _atom_site_occupancy
  Bi  Bi0  1  0.70506011  0.93410450  0.50000000  1
  Bi  Bi1  1  0.29493989  0.06589550  0.50000000  1
  Bi  Bi2  1  0.20506011  0.56589550  0.00000000  1
  Bi  Bi3  1  0.79493989  0.43410450  0.00000000  1
  Bi  Bi4  1  0.78153089  0.64748524  0.50000000  1
  Bi  Bi5  1  0.21846911  0.35251476  0.50000000  1
  Bi  Bi6  1  0.28153089  0.85251476  0.00000000  1
  Bi  Bi7  1  0.71846911  0.14748524  0.00000000  1
  Se  Se8  1  0.50000000  0.50000000  0.50000000  1
  Se  Se9  1  -0.00000000  0.00000000  0.00000000  1
  Se  Se10  1  0.84811605  0.28796799  0.50000000  1
  Se  Se11  1  0.15188395  0.71203201  0.50000000  1
  Se  Se12  1  0.34811605  0.21203201  0.00000000  1
  Se  Se13  1  0.65188395  0.78796799  -0.00000000  1
  N  N14  1  0.61601941  0.07569652  0.50000000  1
  N  N15  1  0.38398059  0.92430348  0.50000000  1
  N  N16  1  0.11601941  0.42430348  0.00000000  1
  N  N17  1  0.88398059  0.57569652  -0.00000000  1
