# generated using pymatgen
data_Mg3MoN4
_symmetry_space_group_name_H-M   'P 1'
_cell_length_a   5.33629690
_cell_length_b   6.14110873
_cell_length_c   6.22458042
_cell_angle_alpha   60.46489655
_cell_angle_beta   74.60684331
_cell_angle_gamma   72.98009088
_symmetry_Int_Tables_number   1
_chemical_formula_structural   Mg3MoN4
_chemical_formula_sum   'Mg6 Mo2 N8'
_cell_volume   167.89539493
_cell_formula_units_Z   2
loop_
 _symmetry_equiv_pos_site_id
 _symmetry_equiv_pos_as_xyz
  1  'x, y, z'
loop_
 _atom_site_type_symbol
 _atom_site_label
 _atom_site_symmetry_multiplicity
 _atom_site_fract_x
 _atom_site_fract_y
 _atom_site_fract_z
 _atom_site_occupancy
  Mg  Mg0  1  0.24020494  0.37877648  0.62222881  1
  Mg  Mg1  1  0.75979506  0.62122352  0.37777119  1
  Mg  Mg2  1  0.74806320  0.63414328  0.86254672  1
  Mg  Mg3  1  0.25193680  0.36585672  0.13745328  1
  Mg  Mg4  1  0.26554138  0.86331856  0.14644016  1
  Mg  Mg5  1  0.73445862  0.13668144  0.85355984  1
  Mo  Mo6  1  0.75911139  0.14811363  0.31656363  1
  Mo  Mo7  1  0.24088861  0.85188637  0.68343637  1
  N  N8  1  0.00005412  0.77229006  0.49881555  1
  N  N9  1  0.99994588  0.22770994  0.50118445  1
  N  N10  1  0.52193398  0.47410600  0.26203388  1
  N  N11  1  0.47806602  0.52589400  0.73796612  1
  N  N12  1  0.47547641  0.99510901  0.74869643  1
  N  N13  1  0.52452359  0.00489099  0.25130357  1
  N  N14  1  0.01103656  0.75426294  0.98609042  1
  N  N15  1  0.98896344  0.24573706  0.01390958  1
