# generated using pymatgen
data_Ca3Y2N4
_symmetry_space_group_name_H-M   'P 1'
_cell_length_a   6.62836925
_cell_length_b   8.53972797
_cell_length_c   7.14332247
_cell_angle_alpha   90.00000099
_cell_angle_beta   90.01092357
_cell_angle_gamma   130.10424336
_symmetry_Int_Tables_number   1
_chemical_formula_structural   Ca3Y2N4
_chemical_formula_sum   'Ca6 Y4 N8'
_cell_volume   309.27206741
_cell_formula_units_Z   2
loop_
 _symmetry_equiv_pos_site_id
 _symmetry_equiv_pos_as_xyz
  1  'x, y, z'
loop_
 _atom_site_type_symbol
 _atom_site_label
 _atom_site_symmetry_multiplicity
 _atom_site_fract_x
 _atom_site_fract_y
 _atom_site_fract_z
 _atom_site_occupancy
  Ca  Ca0  1  0.26718619  0.03003815  0.95176648  1
  Ca  Ca1  1  0.73281381  0.76285196  0.54823352  1
  Ca  Ca2  1  0.73281381  0.96996185  0.04823352  1
  Ca  Ca3  1  0.26718619  0.23714804  0.45176648  1
  Ca  Ca4  1  0.00000000  0.65115627  0.75000000  1
  Ca  Ca5  1  -0.00000000  0.34884373  0.25000000  1
  Y  Y6  1  0.71517897  0.21811084  0.61188276  1
  Y  Y7  1  0.28482103  0.50293187  0.88811724  1
  Y  Y8  1  0.28482103  0.78188916  0.38811724  1
  Y  Y9  1  0.71517897  0.49706813  0.11188276  1
  N  N10  1  0.25653642  0.97865559  0.59532602  1
  N  N11  1  0.74346358  0.72211917  0.90467398  1
  N  N12  1  0.74346358  0.02134441  0.40467398  1
  N  N13  1  0.25653642  0.27788083  0.09532602  1
  N  N14  1  0.76384740  0.27764715  0.93390587  1
  N  N15  1  0.23615260  0.51380075  0.56609413  1
  N  N16  1  0.23615260  0.72235285  0.06609413  1
  N  N17  1  0.76384740  0.48619925  0.43390587  1
