# generated using pymatgen
data_Sr(C4N3)2
_symmetry_space_group_name_H-M   'P 1'
_cell_length_a   5.81254701
_cell_length_b   8.42230000
_cell_length_c   11.51224158
_cell_angle_alpha   90.00000000
_cell_angle_beta   90.00000000
_cell_angle_gamma   90.00000000
_symmetry_Int_Tables_number   1
_chemical_formula_structural   Sr(C4N3)2
_chemical_formula_sum   'Sr2 C16 N12'
_cell_volume   563.58195558
_cell_formula_units_Z   2
loop_
 _symmetry_equiv_pos_site_id
 _symmetry_equiv_pos_as_xyz
  1  'x, y, z'
loop_
 _atom_site_type_symbol
 _atom_site_label
 _atom_site_symmetry_multiplicity
 _atom_site_fract_x
 _atom_site_fract_y
 _atom_site_fract_z
 _atom_site_occupancy
  Sr  Sr0  1  0.00000000  0.50000000  0.50000000  1
  Sr  Sr1  1  0.00000000  -0.00000000  -0.00000000  1
  C  C2  1  0.40890347  -0.00000000  0.74191407  1
  C  C3  1  0.40890347  0.50000000  0.75808593  1
  C  C4  1  0.59109653  -0.00000000  0.25808593  1
  C  C5  1  0.59109653  0.50000000  0.24191407  1
  C  C6  1  0.58881311  0.00000000  0.66057525  1
  C  C7  1  0.58881311  0.50000000  0.83942475  1
  C  C8  1  0.41118689  -0.00000000  0.33942475  1
  C  C9  1  0.41118689  0.50000000  0.16057525  1
  C  C10  1  0.68320874  0.14320609  0.62068282  1
  C  C11  1  0.68320874  0.35679391  0.87931718  1
  C  C12  1  0.31679126  0.14320609  0.37931718  1
  C  C13  1  0.68320874  0.64320609  0.87931718  1
  C  C14  1  0.31679126  0.85679391  0.37931718  1
  C  C15  1  0.31679126  0.64320609  0.12068282  1
  C  C16  1  0.68320874  0.85679391  0.62068282  1
  C  C17  1  0.31679126  0.35679391  0.12068282  1
  N  N18  1  0.76398613  0.26169390  0.58631971  1
  N  N19  1  0.76398613  0.23830610  0.91368029  1
  N  N20  1  0.23601387  0.26169390  0.41368029  1
  N  N21  1  0.76398613  0.76169390  0.91368029  1
  N  N22  1  0.23601387  0.73830610  0.41368029  1
  N  N23  1  0.23601387  0.76169390  0.08631971  1
  N  N24  1  0.76398613  0.73830610  0.58631971  1
  N  N25  1  0.23601387  0.23830610  0.08631971  1
  N  N26  1  0.25994891  0.00000000  0.81057086  1
  N  N27  1  0.25994891  0.50000000  0.68942914  1
  N  N28  1  0.74005109  -0.00000000  0.18942914  1
  N  N29  1  0.74005109  0.50000000  0.31057086  1
