# generated using pymatgen
data_MgGe7N10
_symmetry_space_group_name_H-M   'P 1'
_cell_length_a   7.01809494
_cell_length_b   7.33345606
_cell_length_c   10.30813638
_cell_angle_alpha   90.00000000
_cell_angle_beta   104.88137183
_cell_angle_gamma   90.00000000
_symmetry_Int_Tables_number   1
_chemical_formula_structural   MgGe7N10
_chemical_formula_sum   'Mg2 Ge14 N20'
_cell_volume   512.73363285
_cell_formula_units_Z   2
loop_
 _symmetry_equiv_pos_site_id
 _symmetry_equiv_pos_as_xyz
  1  'x, y, z'
loop_
 _atom_site_type_symbol
 _atom_site_label
 _atom_site_symmetry_multiplicity
 _atom_site_fract_x
 _atom_site_fract_y
 _atom_site_fract_z
 _atom_site_occupancy
  Mg  Mg0  1  0.99409651  0.91552516  0.69865239  1
  Mg  Mg1  1  0.99409651  0.08447484  0.19865239  1
  Ge  Ge2  1  0.54207324  0.97743531  0.82019717  1
  Ge  Ge3  1  0.54207324  0.02256469  0.32019717  1
  Ge  Ge4  1  0.33758608  0.02108920  0.01730499  1
  Ge  Ge5  1  0.33758608  0.97891080  0.51730499  1
  Ge  Ge6  1  0.11301119  0.39498905  0.07169046  1
  Ge  Ge7  1  0.11301119  0.60501095  0.57169046  1
  Ge  Ge8  1  0.66221961  0.35431694  0.99436796  1
  Ge  Ge9  1  0.66221961  0.64568306  0.49436796  1
  Ge  Ge10  1  0.84135984  0.61706111  0.81251060  1
  Ge  Ge11  1  0.84135984  0.38293889  0.31251060  1
  Ge  Ge12  1  0.30255187  0.62204783  0.88144693  1
  Ge  Ge13  1  0.30255187  0.37795217  0.38144693  1
  Ge  Ge14  1  0.48837703  0.36421661  0.68555207  1
  Ge  Ge15  1  0.48837703  0.63578339  0.18555207  1
  N  N16  1  0.76102095  0.85672842  0.80365708  1
  N  N17  1  0.76102095  0.14327158  0.30365708  1
  N  N18  1  0.55271949  0.12796347  0.96948880  1
  N  N19  1  0.55271949  0.87203653  0.46948880  1
  N  N20  1  0.29883452  0.87475056  0.85663543  1
  N  N21  1  0.29883452  0.12524944  0.35663543  1
  N  N22  1  0.13142028  0.14826163  0.04361998  1
  N  N23  1  0.13142028  0.85173837  0.54361998  1
  N  N24  1  0.29503075  0.51146144  0.72097591  1
  N  N25  1  0.29503075  0.48853856  0.22097591  1
  N  N26  1  0.43687925  0.12051009  0.66971143  1
  N  N27  1  0.43687925  0.87948991  0.16971143  1
  N  N28  1  0.88748797  0.36993700  0.13638664  1
  N  N29  1  0.88748797  0.63006300  0.63638664  1
  N  N30  1  0.07952207  0.57467123  0.93967004  1
  N  N31  1  0.07952207  0.42532877  0.43967004  1
  N  N32  1  0.70849658  0.40416648  0.82665710  1
  N  N33  1  0.70849658  0.59583352  0.32665710  1
  N  N34  1  0.50961377  0.54891706  0.02077303  1
  N  N35  1  0.50961377  0.45108294  0.52077303  1
