# generated using pymatgen
data_VCuN2
_symmetry_space_group_name_H-M   'P 1'
_cell_length_a   5.34146785
_cell_length_b   6.28683692
_cell_length_c   5.30068772
_cell_angle_alpha   90.00000000
_cell_angle_beta   90.00000000
_cell_angle_gamma   90.00000000
_symmetry_Int_Tables_number   1
_chemical_formula_structural   VCuN2
_chemical_formula_sum   'V4 Cu4 N8'
_cell_volume   178.00206190
_cell_formula_units_Z   4
loop_
 _symmetry_equiv_pos_site_id
 _symmetry_equiv_pos_as_xyz
  1  'x, y, z'
loop_
 _atom_site_type_symbol
 _atom_site_label
 _atom_site_symmetry_multiplicity
 _atom_site_fract_x
 _atom_site_fract_y
 _atom_site_fract_z
 _atom_site_occupancy
  V  V0  1  0.58182010  0.38156423  0.99042584  1
  V  V1  1  0.41817990  0.61843577  0.49042584  1
  V  V2  1  0.91817990  0.88156423  0.49042584  1
  V  V3  1  0.08182010  0.11843577  0.99042584  1
  Cu  Cu4  1  0.59593696  0.86503306  0.01998455  1
  Cu  Cu5  1  0.40406304  0.13496694  0.51998455  1
  Cu  Cu6  1  0.90406304  0.36503306  0.51998455  1
  Cu  Cu7  1  0.09593696  0.63496694  0.01998455  1
  N  N8  1  0.56645886  0.38867779  0.34034710  1
  N  N9  1  0.43354114  0.61132221  0.84034710  1
  N  N10  1  0.93354114  0.88867779  0.84034710  1
  N  N11  1  0.06645886  0.11132221  0.34034710  1
  N  N12  1  0.58509549  0.86272890  0.39924251  1
  N  N13  1  0.41490451  0.13727110  0.89924251  1
  N  N14  1  0.91490451  0.36272890  0.89924251  1
  N  N15  1  0.08509549  0.63727110  0.39924251  1
