# generated using pymatgen
data_Ca7HfN6
_symmetry_space_group_name_H-M   'P 1'
_cell_length_a   6.38837875
_cell_length_b   9.34522881
_cell_length_c   9.34522881
_cell_angle_alpha   77.99879374
_cell_angle_beta   70.01348959
_cell_angle_gamma   70.01348959
_symmetry_Int_Tables_number   1
_chemical_formula_structural   Ca7HfN6
_chemical_formula_sum   'Ca14 Hf2 N12'
_cell_volume   490.10985152
_cell_formula_units_Z   2
loop_
 _symmetry_equiv_pos_site_id
 _symmetry_equiv_pos_as_xyz
  1  'x, y, z'
loop_
 _atom_site_type_symbol
 _atom_site_label
 _atom_site_symmetry_multiplicity
 _atom_site_fract_x
 _atom_site_fract_y
 _atom_site_fract_z
 _atom_site_occupancy
  Ca  Ca0  1  0.28002945  0.95791713  0.04208287  1
  Ca  Ca1  1  0.71997055  0.04208287  0.95791713  1
  Ca  Ca2  1  0.21997055  0.45791713  0.54208287  1
  Ca  Ca3  1  0.78002945  0.54208287  0.45791713  1
  Ca  Ca4  1  0.73731803  0.15071528  0.60582180  1
  Ca  Ca5  1  0.50614488  0.60582180  0.15071528  1
  Ca  Ca6  1  0.76268197  0.89417820  0.34928472  1
  Ca  Ca7  1  0.99385512  0.34928472  0.89417820  1
  Ca  Ca8  1  0.26268197  0.84928472  0.39417820  1
  Ca  Ca9  1  0.49385512  0.39417820  0.84928472  1
  Ca  Ca10  1  0.23731803  0.10582180  0.65071528  1
  Ca  Ca11  1  0.00614488  0.65071528  0.10582180  1
  Ca  Ca12  1  0.25000000  0.25000000  0.25000000  1
  Ca  Ca13  1  0.75000000  0.75000000  0.75000000  1
  Hf  Hf14  1  0.75000000  0.25000000  0.25000000  1
  Hf  Hf15  1  0.25000000  0.75000000  0.75000000  1
  N  N16  1  0.02629794  0.06391870  0.27905145  1
  N  N17  1  0.63073190  0.27905145  0.06391870  1
  N  N18  1  0.47370206  0.22094855  0.43608130  1
  N  N19  1  0.86926810  0.43608130  0.22094855  1
  N  N20  1  0.97370206  0.93608130  0.72094855  1
  N  N21  1  0.36926810  0.72094855  0.93608130  1
  N  N22  1  0.52629794  0.77905145  0.56391870  1
  N  N23  1  0.13073190  0.56391870  0.77905145  1
  N  N24  1  0.88121393  0.34281701  0.65718299  1
  N  N25  1  0.11878607  0.65718299  0.34281701  1
  N  N26  1  0.61878607  0.84281701  0.15718299  1
  N  N27  1  0.38121393  0.15718299  0.84281701  1
