# generated using pymatgen
data_Mg7GeN6
_symmetry_space_group_name_H-M   'P 1'
_cell_length_a   5.52416482
_cell_length_b   8.32852871
_cell_length_c   8.32852871
_cell_angle_alpha   77.71163045
_cell_angle_beta   70.63158257
_cell_angle_gamma   70.63158257
_symmetry_Int_Tables_number   1
_chemical_formula_structural   Mg7GeN6
_chemical_formula_sum   'Mg14 Ge2 N12'
_cell_volume   338.75131044
_cell_formula_units_Z   2
loop_
 _symmetry_equiv_pos_site_id
 _symmetry_equiv_pos_as_xyz
  1  'x, y, z'
loop_
 _atom_site_type_symbol
 _atom_site_label
 _atom_site_symmetry_multiplicity
 _atom_site_fract_x
 _atom_site_fract_y
 _atom_site_fract_z
 _atom_site_occupancy
  Mg  Mg0  1  0.28191403  0.95918567  0.04081433  1
  Mg  Mg1  1  0.71808597  0.04081433  0.95918567  1
  Mg  Mg2  1  0.21808597  0.45918567  0.54081433  1
  Mg  Mg3  1  0.78191403  0.54081433  0.45918567  1
  Mg  Mg4  1  0.70540735  0.15154344  0.61501442  1
  Mg  Mg5  1  0.52803579  0.61501442  0.15154344  1
  Mg  Mg6  1  0.79459265  0.88498558  0.34845656  1
  Mg  Mg7  1  0.97196421  0.34845656  0.88498558  1
  Mg  Mg8  1  0.29459265  0.84845656  0.38498558  1
  Mg  Mg9  1  0.47196421  0.38498558  0.84845656  1
  Mg  Mg10  1  0.20540735  0.11501442  0.65154344  1
  Mg  Mg11  1  0.02803579  0.65154344  0.11501442  1
  Mg  Mg12  1  0.25000000  0.25000000  0.25000000  1
  Mg  Mg13  1  0.75000000  0.75000000  0.75000000  1
  Ge  Ge14  1  0.75000000  0.25000000  0.25000000  1
  Ge  Ge15  1  0.25000000  0.75000000  0.75000000  1
  N  N16  1  0.03812923  0.05939879  0.27663662  1
  N  N17  1  0.62583537  0.27663662  0.05939879  1
  N  N18  1  0.46187077  0.22336338  0.44060121  1
  N  N19  1  0.87416463  0.44060121  0.22336338  1
  N  N20  1  0.96187077  0.94060121  0.72336338  1
  N  N21  1  0.37416463  0.72336338  0.94060121  1
  N  N22  1  0.53812923  0.77663662  0.55939879  1
  N  N23  1  0.12583537  0.55939879  0.77663662  1
  N  N24  1  0.85725601  0.34479733  0.65520267  1
  N  N25  1  0.14274399  0.65520267  0.34479733  1
  N  N26  1  0.64274399  0.84479733  0.15520267  1
  N  N27  1  0.35725601  0.15520267  0.84479733  1
