# generated using pymatgen
data_Sr11(CN5)2
_symmetry_space_group_name_H-M   'P 1'
_cell_length_a   15.50727165
_cell_length_b   15.50727165
_cell_length_c   3.88755596
_cell_angle_alpha   90.00000000
_cell_angle_beta   90.00000000
_cell_angle_gamma   90.00000000
_symmetry_Int_Tables_number   1
_chemical_formula_structural   Sr11(CN5)2
_chemical_formula_sum   'Sr22 C4 N20'
_cell_volume   934.86186229
_cell_formula_units_Z   2
loop_
 _symmetry_equiv_pos_site_id
 _symmetry_equiv_pos_as_xyz
  1  'x, y, z'
loop_
 _atom_site_type_symbol
 _atom_site_label
 _atom_site_symmetry_multiplicity
 _atom_site_fract_x
 _atom_site_fract_y
 _atom_site_fract_z
 _atom_site_occupancy
  Sr  Sr0  1  0.50000000  0.50000000  0.50000000  1
  Sr  Sr1  1  0.00000000  0.00000000  0.00000000  1
  Sr  Sr2  1  0.97977194  0.79485726  0.50000000  1
  Sr  Sr3  1  0.02022806  0.20514274  0.50000000  1
  Sr  Sr4  1  0.52022806  0.29485726  0.00000000  1
  Sr  Sr5  1  0.47977194  0.70514274  0.00000000  1
  Sr  Sr6  1  0.79485726  0.97977194  0.50000000  1
  Sr  Sr7  1  0.20514274  0.02022806  0.50000000  1
  Sr  Sr8  1  0.29485726  0.52022806  0.00000000  1
  Sr  Sr9  1  0.70514274  0.47977194  0.00000000  1
  Sr  Sr10  1  0.67063424  0.67063424  0.50000000  1
  Sr  Sr11  1  0.32936576  0.32936576  0.50000000  1
  Sr  Sr12  1  0.82936576  0.17063424  0.00000000  1
  Sr  Sr13  1  0.17063424  0.82936576  0.00000000  1
  Sr  Sr14  1  0.38186750  0.88940462  0.50000000  1
  Sr  Sr15  1  0.61813250  0.11059538  0.50000000  1
  Sr  Sr16  1  0.11813250  0.38940462  0.00000000  1
  Sr  Sr17  1  0.88186750  0.61059538  0.00000000  1
  Sr  Sr18  1  0.88940462  0.38186750  0.50000000  1
  Sr  Sr19  1  0.11059538  0.61813250  0.50000000  1
  Sr  Sr20  1  0.38940462  0.11813250  0.00000000  1
  Sr  Sr21  1  0.61059538  0.88186750  0.00000000  1
  C  C22  1  0.31820508  0.68179492  0.50000000  1
  C  C23  1  0.68179492  0.31820508  0.50000000  1
  C  C24  1  0.18179492  0.18179492  0.00000000  1
  C  C25  1  0.81820508  0.81820508  0.00000000  1
  N  N26  1  0.09141241  0.90858759  0.50000000  1
  N  N27  1  0.90858759  0.09141241  0.50000000  1
  N  N28  1  0.40858759  0.40858759  0.00000000  1
  N  N29  1  0.59141241  0.59141241  0.00000000  1
  N  N30  1  0.46787310  0.18969230  0.50000000  1
  N  N31  1  0.53212690  0.81030770  0.50000000  1
  N  N32  1  0.03212690  0.68969230  0.00000000  1
  N  N33  1  0.96787310  0.31030770  0.00000000  1
  N  N34  1  0.18969230  0.46787310  0.50000000  1
  N  N35  1  0.81030770  0.53212690  0.50000000  1
  N  N36  1  0.68969230  0.03212690  0.00000000  1
  N  N37  1  0.31030770  0.96787310  0.00000000  1
  N  N38  1  0.26171059  0.73828941  0.50000000  1
  N  N39  1  0.73828941  0.26171059  0.50000000  1
  N  N40  1  0.23828941  0.23828941  0.00000000  1
  N  N41  1  0.76171059  0.76171059  0.00000000  1
  N  N42  1  0.37514149  0.62485851  0.50000000  1
  N  N43  1  0.62485851  0.37514149  0.50000000  1
  N  N44  1  0.12485851  0.12485851  0.00000000  1
  N  N45  1  0.87514149  0.87514149  0.00000000  1
