# generated using pymatgen
data_Al(CoO2)2
_symmetry_space_group_name_H-M   'P 1'
_cell_length_a   5.25133142
_cell_length_b   5.12233803
_cell_length_c   6.10477420
_cell_angle_alpha   112.66114714
_cell_angle_beta   113.72819963
_cell_angle_gamma   95.07133087
_symmetry_Int_Tables_number   1
_chemical_formula_structural   Al(CoO2)2
_chemical_formula_sum   'Al2 Co4 O8'
_cell_volume   132.84119207
_cell_formula_units_Z   2
loop_
 _symmetry_equiv_pos_site_id
 _symmetry_equiv_pos_as_xyz
  1  'x, y, z'
loop_
 _atom_site_type_symbol
 _atom_site_label
 _atom_site_symmetry_multiplicity
 _atom_site_fract_x
 _atom_site_fract_y
 _atom_site_fract_z
 _atom_site_occupancy
  Al  Al0  1  0.91881079  0.17490546  0.84514407  1
  Al  Al1  1  0.08118921  0.82509454  0.15485593  1
  Co  Co2  1  0.50000000  0.00000000  0.00000000  1
  Co  Co3  1  0.50000000  0.50000000  0.00000000  1
  Co  Co4  1  0.00000000  0.50000000  0.50000000  1
  Co  Co5  1  0.50000000  0.50000000  0.50000000  1
  O  O6  1  0.73257925  0.48211266  0.83341602  1
  O  O7  1  0.09350060  0.85401628  0.82954549  1
  O  O8  1  0.26742075  0.51788734  0.16658398  1
  O  O9  1  0.90649940  0.14598372  0.17045451  1
  O  O10  1  0.45290961  0.09798036  0.30729555  1
  O  O11  1  0.86836747  0.70422999  0.30855454  1
  O  O12  1  0.13163253  0.29577001  0.69144546  1
  O  O13  1  0.54709039  0.90201964  0.69270445  1
