# generated using pymatgen
data_Na3YN2
_symmetry_space_group_name_H-M   'P 1'
_cell_length_a   10.06121554
_cell_length_b   11.61769124
_cell_length_c   11.61769067
_cell_angle_alpha   89.99999794
_cell_angle_beta   125.26438880
_cell_angle_gamma   54.73561318
_symmetry_Int_Tables_number   1
_chemical_formula_structural   Na3YN2
_chemical_formula_sum   'Na24 Y8 N16'
_cell_volume   784.02423827
_cell_formula_units_Z   8
loop_
 _symmetry_equiv_pos_site_id
 _symmetry_equiv_pos_as_xyz
  1  'x, y, z'
loop_
 _atom_site_type_symbol
 _atom_site_label
 _atom_site_symmetry_multiplicity
 _atom_site_fract_x
 _atom_site_fract_y
 _atom_site_fract_z
 _atom_site_occupancy
  Na  Na0  1  0.21856122  0.04781715  0.98817852  1
  Na  Na1  1  0.78143878  0.76637837  0.51182148  1
  Na  Na2  1  0.78143878  0.45218285  0.76961830  1
  Na  Na3  1  0.21856122  0.73362163  0.73038170  1
  Na  Na4  1  0.24220318  0.76961830  0.27819985  1
  Na  Na5  1  0.75779682  0.73038170  0.03599567  1
  Na  Na6  1  0.24220318  0.98817852  0.46400433  1
  Na  Na7  1  0.75779682  0.51182148  0.22180015  1
  Na  Na8  1  0.68580448  0.03599567  0.73362163  1
  Na  Na9  1  0.68580448  0.27819985  0.45218285  1
  Na  Na10  1  0.31419552  0.22180015  0.76637837  1
  Na  Na11  1  0.31419552  0.46400433  0.04781715  1
  Na  Na12  1  0.78143878  0.95218285  0.01182148  1
  Na  Na13  1  0.21856122  0.23362163  0.48817852  1
  Na  Na14  1  0.21856122  0.54781715  0.23038170  1
  Na  Na15  1  0.78143878  0.26637837  0.26961830  1
  Na  Na16  1  0.75779682  0.23038170  0.72180015  1
  Na  Na17  1  0.24220318  0.26961830  0.96400433  1
  Na  Na18  1  0.75779682  0.01182148  0.53599567  1
  Na  Na19  1  0.24220318  0.48817852  0.77819985  1
  Na  Na20  1  0.31419552  0.96400433  0.26637837  1
  Na  Na21  1  0.31419552  0.72180015  0.54781715  1
  Na  Na22  1  0.68580448  0.77819985  0.23362163  1
  Na  Na23  1  0.68580448  0.53599567  0.95218285  1
  Y  Y24  1  0.23058548  0.00000000  0.73058548  1
  Y  Y25  1  0.76941452  0.73058548  0.76941452  1
  Y  Y26  1  0.76941452  0.50000000  0.50000000  1
  Y  Y27  1  0.23058548  0.76941452  0.00000000  1
  Y  Y28  1  0.76941452  -0.00000000  0.26941452  1
  Y  Y29  1  0.23058548  0.26941452  0.23058548  1
  Y  Y30  1  0.23058548  0.50000000  0.50000000  1
  Y  Y31  1  0.76941452  0.23058548  -0.00000000  1
  N  N32  1  -0.00000000  0.00000000  0.50000000  1
  N  N33  1  -0.00000000  0.50000000  -0.00000000  1
  N  N34  1  -0.00000000  0.50000000  0.50000000  1
  N  N35  1  -0.00000000  0.00000000  -0.00000000  1
  N  N36  1  0.50000000  0.96134659  0.75000000  1
  N  N37  1  0.50000000  0.53865341  0.25000000  1
  N  N38  1  0.00000000  0.25000000  0.71134659  1
  N  N39  1  -0.00000000  0.75000000  0.78865341  1
  N  N40  1  0.57730782  0.71134659  0.53865341  1
  N  N41  1  0.42269218  0.78865341  0.96134659  1
  N  N42  1  0.50000000  0.03865341  0.25000000  1
  N  N43  1  0.50000000  0.46134659  0.75000000  1
  N  N44  1  -0.00000000  0.75000000  0.28865341  1
  N  N45  1  0.00000000  0.25000000  0.21134659  1
  N  N46  1  0.42269218  0.28865341  0.46134659  1
  N  N47  1  0.57730782  0.21134659  0.03865341  1
