# generated using pymatgen
data_MgO
_symmetry_space_group_name_H-M   'P 1'
_cell_length_a   10.10282720
_cell_length_b   10.84726750
_cell_length_c   9.16935452
_cell_angle_alpha   95.00821533
_cell_angle_beta   91.86072453
_cell_angle_gamma   84.00621637
_symmetry_Int_Tables_number   1
_chemical_formula_structural   MgO
_chemical_formula_sum   'Mg40 O40'
_cell_volume   995.26656755
_cell_formula_units_Z   40
loop_
 _symmetry_equiv_pos_site_id
 _symmetry_equiv_pos_as_xyz
  1  'x, y, z'
loop_
 _atom_site_type_symbol
 _atom_site_label
 _atom_site_symmetry_multiplicity
 _atom_site_fract_x
 _atom_site_fract_y
 _atom_site_fract_z
 _atom_site_occupancy
  Mg  Mg0  1  0.71723926  0.65722415  0.00567235  1
  Mg  Mg1  1  0.18172564  0.64289259  0.72610544  1
  Mg  Mg2  1  0.69867926  0.35757116  0.06303369  1
  Mg  Mg3  1  0.55014213  0.91075045  0.57949437  1
  Mg  Mg4  1  0.35473109  0.60303154  0.50757743  1
  Mg  Mg5  1  0.27424156  0.76981906  0.10314248  1
  Mg  Mg6  1  0.50583117  0.21408479  0.89544381  1
  Mg  Mg7  1  0.59581364  0.62953135  0.63399658  1
  Mg  Mg8  1  0.13265420  0.39428402  0.38330132  1
  Mg  Mg9  1  0.81561074  0.83855678  0.74129295  1
  Mg  Mg10  1  0.27963838  0.37020017  0.71084624  1
  Mg  Mg11  1  0.27925608  0.87096603  0.56150842  1
  Mg  Mg12  1  0.94479793  0.59790074  0.61475190  1
  Mg  Mg13  1  0.13738710  0.01551624  0.24544674  1
  Mg  Mg14  1  0.00639639  0.59019726  0.92855961  1
  Mg  Mg15  1  0.89652962  0.77390288  0.15336700  1
  Mg  Mg16  1  0.97866630  0.34101936  0.04265632  1
  Mg  Mg17  1  0.87274998  0.03043517  0.07398278  1
  Mg  Mg18  1  0.73304721  0.45417601  0.79994289  1
  Mg  Mg19  1  0.40257119  0.96212541  0.29703347  1
  Mg  Mg20  1  0.89041751  0.03632697  0.57966236  1
  Mg  Mg21  1  0.73086213  0.90676448  0.35286230  1
  Mg  Mg22  1  0.60720663  0.93207394  0.02076677  1
  Mg  Mg23  1  0.41488360  0.60158506  0.89819527  1
  Mg  Mg24  1  0.60124889  0.28858165  0.61491935  1
  Mg  Mg25  1  0.63737126  0.19540553  0.24037806  1
  Mg  Mg26  1  0.09489664  0.76621260  0.34972157  1
  Mg  Mg27  1  0.38814957  0.86377120  0.85218713  1
  Mg  Mg28  1  0.31228701  0.24816376  0.12487842  1
  Mg  Mg29  1  0.35937495  0.19281509  0.46651934  1
  Mg  Mg30  1  0.50578104  0.42203970  0.32160285  1
  Mg  Mg31  1  0.23143439  0.52614442  0.17600158  1
  Mg  Mg32  1  0.02566720  0.31281093  0.65998333  1
  Mg  Mg33  1  0.81797072  0.35127434  0.44659561  1
  Mg  Mg34  1  0.35710980  0.08829915  0.73157365  1
  Mg  Mg35  1  0.08062694  0.87725393  0.85579840  1
  Mg  Mg36  1  0.52486486  0.70986817  0.24864458  1
  Mg  Mg37  1  0.74310335  0.57949107  0.38453970  1
  Mg  Mg38  1  0.13779780  0.11003974  0.90223664  1
  Mg  Mg39  1  0.84515139  0.18089373  0.83949143  1
  O  O40  1  0.78404271  0.82249124  0.97331667  1
  O  O41  1  0.51177898  0.29171907  0.10391654  1
  O  O42  1  0.07913684  0.48686932  0.74868736  1
  O  O43  1  0.70183805  0.02352755  0.18303161  1
  O  O44  1  0.44407415  0.77507837  0.65162202  1
  O  O45  1  0.53407359  0.59544953  0.41314022  1
  O  O46  1  0.55242137  0.86192747  0.36622100  1
  O  O47  1  0.76959581  0.68887493  0.59189079  1
  O  O48  1  0.24156978  0.86162508  0.30411260  1
  O  O49  1  0.99241110  0.72566245  0.78389704  1
  O  O50  1  0.07814912  0.66899845  0.13928906  1
  O  O51  1  0.85044000  0.49485086  0.97633959  1
  O  O52  1  0.37631170  0.01758071  0.52670183  1
  O  O53  1  0.14087966  0.36989275  0.15546955  1
  O  O54  1  0.28873023  0.12112473  0.26093217  1
  O  O55  1  0.95070265  0.47427160  0.44253288  1
  O  O56  1  0.21951022  0.96785858  0.76132202  1
  O  O57  1  0.67482751  0.29214562  0.84102714  1
  O  O58  1  0.35117066  0.52957209  0.70565917  1
  O  O59  1  0.30101375  0.19612383  0.91680348  1
  O  O60  1  0.07132267  0.99239421  0.04682093  1
  O  O61  1  0.84391222  0.21408753  0.06973238  1
  O  O62  1  0.44985326  0.85022855  0.07504585  1
  O  O63  1  0.94338766  0.89938783  0.31880223  1
  O  O64  1  0.60181844  0.59706245  0.85472171  1
  O  O65  1  0.53422495  0.25182345  0.41187547  1
  O  O66  1  0.91501084  0.00128196  0.79370301  1
  O  O67  1  0.73581174  0.95124071  0.56899312  1
  O  O68  1  0.38764526  0.60337080  0.11495514  1
  O  O69  1  0.17586743  0.71422668  0.53152054  1
  O  O70  1  0.73985067  0.69234410  0.21928457  1
  O  O71  1  0.18557847  0.28371240  0.54145854  1
  O  O72  1  0.70904513  0.39840670  0.27461956  1
  O  O73  1  0.52161351  0.00154537  0.83855194  1
  O  O74  1  0.69568973  0.44126606  0.59437607  1
  O  O75  1  0.30362202  0.46868478  0.36266591  1
  O  O76  1  0.25219576  0.74383927  0.89264979  1
  O  O77  1  0.43604062  0.24415590  0.68985267  1
  O  O78  1  0.01533188  0.25125427  0.85083813  1
  O  O79  1  0.87857333  0.21362716  0.56676656  1
