# generated using pymatgen
data_Si3N4
_symmetry_space_group_name_H-M   'P 1'
_cell_length_a   10.26112053
_cell_length_b   10.19211089
_cell_length_c   11.14124329
_cell_angle_alpha   88.52537779
_cell_angle_beta   90.55859930
_cell_angle_gamma   90.00350975
_symmetry_Int_Tables_number   1
_chemical_formula_structural   Si3N4
_chemical_formula_sum   'Si45 N60'
_cell_volume   1164.73757438
_cell_formula_units_Z   15
loop_
 _symmetry_equiv_pos_site_id
 _symmetry_equiv_pos_as_xyz
  1  'x, y, z'
loop_
 _atom_site_type_symbol
 _atom_site_label
 _atom_site_symmetry_multiplicity
 _atom_site_fract_x
 _atom_site_fract_y
 _atom_site_fract_z
 _atom_site_occupancy
  Si  Si0  1  0.88746064  0.80062637  0.47268882  1
  Si  Si1  1  0.23536406  0.14933737  0.50906918  1
  Si  Si2  1  0.01013567  0.40246662  0.81502647  1
  Si  Si3  1  0.38188783  0.43048501  0.80513927  1
  Si  Si4  1  0.24943764  0.92014248  0.89606547  1
  Si  Si5  1  0.09707097  0.70543452  0.56215511  1
  Si  Si6  1  0.42915643  0.89658198  0.24648245  1
  Si  Si7  1  0.76504094  0.38101062  0.70168627  1
  Si  Si8  1  0.57854086  0.72848174  0.60795903  1
  Si  Si9  1  0.28860866  0.15494704  0.25924452  1
  Si  Si10  1  0.63031454  0.32512953  0.95940953  1
  Si  Si11  1  0.71737037  0.11475602  0.79873381  1
  Si  Si12  1  0.81816510  0.74741234  0.00893662  1
  Si  Si13  1  0.74147465  0.88505076  0.81272600  1
  Si  Si14  1  0.13538636  0.49321886  0.36825404  1
  Si  Si15  1  0.08578852  0.23590294  0.03237730  1
  Si  Si16  1  0.16830373  0.62683400  0.91079083  1
  Si  Si17  1  0.00589542  0.21389368  0.35743426  1
  Si  Si18  1  0.39753788  0.36769435  0.35771307  1
  Si  Si19  1  0.86167487  0.04678441  0.56963548  1
  Si  Si20  1  0.59779962  0.00672955  0.64237357  1
  Si  Si21  1  0.60072645  0.45888977  0.19779621  1
  Si  Si22  1  0.50371674  0.66915689  0.09885025  1
  Si  Si23  1  0.02003558  0.29580974  0.56943552  1
  Si  Si24  1  0.62663841  0.48996511  0.46740284  1
  Si  Si25  1  0.56242333  0.17626672  0.19309772  1
  Si  Si26  1  0.01635999  0.51408395  0.12351978  1
  Si  Si27  1  0.21224253  0.74731250  0.10960704  1
  Si  Si28  1  0.34481903  0.55201984  0.54575052  1
  Si  Si29  1  0.95223072  0.71442519  0.22592308  1
  Si  Si30  1  0.30643253  0.44399756  0.13406561  1
  Si  Si31  1  0.89573727  0.64885643  0.75251869  1
  Si  Si32  1  0.19683195  0.19093995  0.78245809  1
  Si  Si33  1  0.88056740  0.03080203  0.07977064  1
  Si  Si34  1  0.64371220  0.99282100  0.39726222  1
  Si  Si35  1  0.35492499  0.70741114  0.73833275  1
  Si  Si36  1  0.75391448  0.28228998  0.39392536  1
  Si  Si37  1  0.83341787  0.29476106  0.13230954  1
  Si  Si38  1  0.67068161  0.72287133  0.32866475  1
  Si  Si39  1  0.37123366  0.89605070  0.50269958  1
  Si  Si40  1  0.37594568  0.18361572  0.98486821  1
  Si  Si41  1  0.14469584  0.89735675  0.33765732  1
  Si  Si42  1  0.13206144  0.93830574  0.67209233  1
  Si  Si43  1  0.48511169  0.94361901  0.88251028  1
  Si  Si44  1  0.61811416  0.58057386  0.84054196  1
  N  N45  1  0.51773044  0.98398486  0.50952452  1
  N  N46  1  0.33584018  0.26476652  0.84884202  1
  N  N47  1  0.44904081  0.51332794  0.09076339  1
  N  N48  1  0.52415256  0.64780641  0.73313291  1
  N  N49  1  0.17750736  0.76732253  0.68580340  1
  N  N50  1  0.65303471  0.14950078  0.33895023  1
  N  N51  1  0.76524018  0.53711490  0.77106415  1
  N  N52  1  0.62088166  0.84858755  0.92439383  1
  N  N53  1  0.91213036  0.18861015  0.49010784  1
  N  N54  1  0.31208146  0.88090495  0.35793753  1
  N  N55  1  0.26683303  0.44643855  0.28314423  1
  N  N56  1  0.85401919  0.76756329  0.85472496  1
  N  N57  1  0.76576255  0.14618875  0.09751298  1
  N  N58  1  0.38058546  0.78059671  0.13843294  1
  N  N59  1  0.58667623  0.87176325  0.30176908  1
  N  N60  1  0.70593380  0.39934405  0.08589863  1
  N  N61  1  0.97600066  0.97060921  0.64608004  1
  N  N62  1  0.36231748  0.01574240  0.97200020  1
  N  N63  1  0.64837180  0.66113735  0.48110980  1
  N  N64  1  0.18766619  0.58634317  0.48854603  1
  N  N65  1  0.16765791  0.78780219  0.96358520  1
  N  N66  1  0.37324662  0.84782129  0.81660987  1
  N  N67  1  0.02829348  0.56464126  0.83479373  1
  N  N68  1  0.34050392  0.44838327  0.66094447  1
  N  N69  1  0.03245517  0.08614917  0.06599746  1
  N  N70  1  0.13341580  0.08815884  0.33142731  1
  N  N71  1  0.70461440  0.37350473  0.55677893  1
  N  N72  1  0.83800315  0.73796618  0.33461349  1
  N  N73  1  0.84138981  0.87429029  0.09730065  1
  N  N74  1  0.73026353  0.11274838  0.64227156  1
  N  N75  1  0.40379935  0.73931873  0.57073382  1
  N  N76  1  0.08142976  0.34570636  0.43111810  1
  N  N77  1  0.17800893  0.56138769  0.06874519  1
  N  N78  1  0.33447320  0.21730454  0.40272668  1
  N  N79  1  0.17026211  0.02585575  0.80145430  1
  N  N80  1  0.25639016  0.99494943  0.56821978  1
  N  N81  1  0.68812200  0.43009057  0.33727044  1
  N  N82  1  0.79293664  0.94410242  0.46326122  1
  N  N83  1  0.45660106  0.48409963  0.44921937  1
  N  N84  1  0.53928595  0.43667616  0.87335377  1
  N  N85  1  0.08883322  0.27553593  0.87646113  1
  N  N86  1  0.66788911  0.85379729  0.67186353  1
  N  N87  1  0.30944590  0.58326638  0.85002655  1
  N  N88  1  0.62882858  0.70912263  0.97292810  1
  N  N89  1  0.98124812  0.36138806  0.07295537  1
  N  N90  1  0.48741115  0.32515047  0.23634503  1
  N  N91  1  0.93707406  0.36786087  0.68226756  1
  N  N92  1  0.16066255  0.22509865  0.62940183  1
  N  N93  1  0.53117510  0.21040737  0.03113176  1
  N  N94  1  0.90797664  0.63615855  0.09009454  1
  N  N95  1  0.93028504  0.68712302  0.60028954  1
  N  N96  1  0.05541318  0.82464071  0.44913234  1
  N  N97  1  0.42390351  0.06442671  0.21466076  1
  N  N98  1  0.60869463  0.63194714  0.21549120  1
  N  N99  1  0.25492678  0.25770485  0.10024216  1
  N  N100  1  0.55095311  0.05997337  0.78480240  1
  N  N101  1  0.87864378  0.27622997  0.28022779  1
  N  N102  1  0.02418629  0.55827083  0.27118998  1
  N  N103  1  0.10388417  0.80886044  0.21171201  1
  N  N104  1  0.73739370  0.27609042  0.83832004  1
