# generated using pymatgen
data_AlSbO3
_symmetry_space_group_name_H-M   'P 1'
_cell_length_a   5.50321754
_cell_length_b   5.11810436
_cell_length_c   11.53031035
_cell_angle_alpha   90.04020910
_cell_angle_beta   89.91727647
_cell_angle_gamma   90.07939491
_symmetry_Int_Tables_number   1
_chemical_formula_structural   AlSbO3
_chemical_formula_sum   'Al4 Sb4 O12'
_cell_volume   324.76247241
_cell_formula_units_Z   4
loop_
 _symmetry_equiv_pos_site_id
 _symmetry_equiv_pos_as_xyz
  1  'x, y, z'
loop_
 _atom_site_type_symbol
 _atom_site_label
 _atom_site_symmetry_multiplicity
 _atom_site_fract_x
 _atom_site_fract_y
 _atom_site_fract_z
 _atom_site_occupancy
  Al  Al0  1  0.90202547  0.00249272  0.73764188  1
  Al  Al1  1  0.42824822  0.49869497  0.26274659  1
  Al  Al2  1  0.57179183  0.50166373  0.76151501  1
  Al  Al3  1  0.09819435  0.99743455  0.23896694  1
  Sb  Sb4  1  0.05698056  0.51001664  0.56551395  1
  Sb  Sb5  1  0.58131488  0.99166613  0.43517969  1
  Sb  Sb6  1  0.41800562  0.00905493  0.93375033  1
  Sb  Sb7  1  0.94456899  0.48956708  0.06693343  1
  O  O8  1  0.47356344  0.34880125  0.39882455  1
  O  O9  1  0.94398986  0.15275472  0.60058094  1
  O  O10  1  0.05764096  0.84678164  0.10184052  1
  O  O11  1  0.52601632  0.65179766  0.89764847  1
  O  O12  1  0.33810496  0.52294099  0.66285636  1
  O  O13  1  0.86357072  0.97469209  0.33723081  1
  O  O14  1  0.13507075  0.02437586  0.83653250  1
  O  O15  1  0.66162688  0.47693916  0.16353096  1
  O  O16  1  0.16611385  0.33369793  0.20163452  1
  O  O17  1  0.64030449  0.16615471  0.79775058  1
  O  O18  1  0.35918066  0.83404473  0.29931855  1
  O  O19  1  0.83368821  0.66642851  0.70000341  1
