# generated using pymatgen
data_GePbN2
_symmetry_space_group_name_H-M   'P 1'
_cell_length_a   6.11371918
_cell_length_b   10.73525722
_cell_length_c   9.03627307
_cell_angle_alpha   90.00000000
_cell_angle_beta   90.00000000
_cell_angle_gamma   28.60220078
_symmetry_Int_Tables_number   1
_chemical_formula_structural   GePbN2
_chemical_formula_sum   'Ge4 Pb4 N8'
_cell_volume   283.91865102
_cell_formula_units_Z   4
loop_
 _symmetry_equiv_pos_site_id
 _symmetry_equiv_pos_as_xyz
  1  'x, y, z'
loop_
 _atom_site_type_symbol
 _atom_site_label
 _atom_site_symmetry_multiplicity
 _atom_site_fract_x
 _atom_site_fract_y
 _atom_site_fract_z
 _atom_site_occupancy
  Ge  Ge0  1  -0.00000000  0.46570856  0.64312727  1
  Ge  Ge1  1  0.00000000  0.53429144  0.35687273  1
  Ge  Ge2  1  0.00000000  0.03429144  0.14312727  1
  Ge  Ge3  1  -0.00000000  0.96570856  0.85687273  1
  Pb  Pb4  1  1.00000000  0.16403121  0.46081619  1
  Pb  Pb5  1  0.00000000  0.83596879  0.53918381  1
  Pb  Pb6  1  0.00000000  0.33596879  0.96081619  1
  Pb  Pb7  1  1.00000000  0.66403121  0.03918381  1
  N  N8  1  0.00000000  0.11937405  0.95659501  1
  N  N9  1  1.00000000  0.88062595  0.04340499  1
  N  N10  1  1.00000000  0.38062595  0.45659501  1
  N  N11  1  0.00000000  0.61937405  0.54340499  1
  N  N12  1  0.50000000  0.65441192  0.75000000  1
  N  N13  1  0.50000000  0.84558808  0.25000000  1
  N  N14  1  0.50000000  0.34558808  0.25000000  1
  N  N15  1  0.50000000  0.15441192  0.75000000  1
