# generated using pymatgen
data_FeSi7N10
_symmetry_space_group_name_H-M   'P 1'
_cell_length_a   6.69398696
_cell_length_b   6.89897935
_cell_length_c   9.71610001
_cell_angle_alpha   90.00000000
_cell_angle_beta   104.10941426
_cell_angle_gamma   90.00000000
_symmetry_Int_Tables_number   1
_chemical_formula_structural   FeSi7N10
_chemical_formula_sum   'Fe2 Si14 N20'
_cell_volume   435.16923194
_cell_formula_units_Z   2
loop_
 _symmetry_equiv_pos_site_id
 _symmetry_equiv_pos_as_xyz
  1  'x, y, z'
loop_
 _atom_site_type_symbol
 _atom_site_label
 _atom_site_symmetry_multiplicity
 _atom_site_fract_x
 _atom_site_fract_y
 _atom_site_fract_z
 _atom_site_occupancy
  Fe  Fe0  1  0.99884592  0.91944946  0.70422769  1
  Fe  Fe1  1  0.99884592  0.08055054  0.20422769  1
  Si  Si2  1  0.54299652  0.98154718  0.82266604  1
  Si  Si3  1  0.54299652  0.01845282  0.32266604  1
  Si  Si4  1  0.34891003  0.02197301  0.02022956  1
  Si  Si5  1  0.34891003  0.97802699  0.52022956  1
  Si  Si6  1  0.10927224  0.40098110  0.07421817  1
  Si  Si7  1  0.10927224  0.59901890  0.57421817  1
  Si  Si8  1  0.65906644  0.36300112  0.98896500  1
  Si  Si9  1  0.65906644  0.63699888  0.48896500  1
  Si  Si10  1  0.84616821  0.61670270  0.80662202  1
  Si  Si11  1  0.84616821  0.38329730  0.30662202  1
  Si  Si12  1  0.29684623  0.62062359  0.88110744  1
  Si  Si13  1  0.29684623  0.37937641  0.38110744  1
  Si  Si14  1  0.48474020  0.36648639  0.68464592  1
  Si  Si15  1  0.48474020  0.63351361  0.18464592  1
  N  N16  1  0.75340086  0.84906990  0.80752441  1
  N  N17  1  0.75340086  0.15093010  0.30752441  1
  N  N18  1  0.55226950  0.13729319  0.96750369  1
  N  N19  1  0.55226950  0.86270681  0.46750369  1
  N  N20  1  0.31281073  0.87170487  0.86463086  1
  N  N21  1  0.31281073  0.12829513  0.36463086  1
  N  N22  1  0.15014885  0.15732071  0.04991294  1
  N  N23  1  0.15014885  0.84267929  0.54991294  1
  N  N24  1  0.28902955  0.50629881  0.72203976  1
  N  N25  1  0.28902955  0.49370119  0.22203976  1
  N  N26  1  0.44609928  0.11984651  0.67003682  1
  N  N27  1  0.44609928  0.88015349  0.17003682  1
  N  N28  1  0.87933788  0.38439269  0.12887846  1
  N  N29  1  0.87933788  0.61560731  0.62887846  1
  N  N30  1  0.07509354  0.56772249  0.93451146  1
  N  N31  1  0.07509354  0.43227751  0.43451146  1
  N  N32  1  0.69988075  0.41456364  0.82193407  1
  N  N33  1  0.69988075  0.58543636  0.32193407  1
  N  N34  1  0.49738325  0.54365993  0.01964567  1
  N  N35  1  0.49738325  0.45634007  0.51964567  1
