# generated using pymatgen
data_BN
_symmetry_space_group_name_H-M   'P 1'
_cell_length_a   11.52731090
_cell_length_b   10.99309002
_cell_length_c   10.37006887
_cell_angle_alpha   91.27066903
_cell_angle_beta   81.60684079
_cell_angle_gamma   93.44757491
_symmetry_Int_Tables_number   1
_chemical_formula_structural   BN
_chemical_formula_sum   'B50 N50'
_cell_volume   1297.55654323
_cell_formula_units_Z   50
loop_
 _symmetry_equiv_pos_site_id
 _symmetry_equiv_pos_as_xyz
  1  'x, y, z'
loop_
 _atom_site_type_symbol
 _atom_site_label
 _atom_site_symmetry_multiplicity
 _atom_site_fract_x
 _atom_site_fract_y
 _atom_site_fract_z
 _atom_site_occupancy
  B  B0  1  0.19046680  0.32453195  0.50963665  1
  B  B1  1  0.80797651  0.86321327  0.18700547  1
  B  B2  1  0.61066983  0.82200007  0.07343286  1
  B  B3  1  0.98467009  0.88041295  0.28984488  1
  B  B4  1  0.05475621  0.02951917  0.09691083  1
  B  B5  1  0.55558739  0.05653125  0.49855696  1
  B  B6  1  0.33069033  0.45272926  0.32631243  1
  B  B7  1  0.73925871  0.20127677  0.70028376  1
  B  B8  1  0.09918354  0.06838103  0.84569892  1
  B  B9  1  0.50122256  0.50631312  0.65596769  1
  B  B10  1  0.79766976  0.64805956  0.54790075  1
  B  B11  1  0.03780677  0.00841133  0.62130737  1
  B  B12  1  0.44175153  0.59598363  0.46431781  1
  B  B13  1  0.43149744  0.68175314  0.69387098  1
  B  B14  1  0.50908368  0.12600686  0.69037083  1
  B  B15  1  0.73428840  0.84130383  0.62583371  1
  B  B16  1  0.79847475  0.99522927  0.80124636  1
  B  B17  1  0.53233188  0.61320788  0.95093968  1
  B  B18  1  0.13140374  0.39483140  0.30712905  1
  B  B19  1  0.12655639  0.40400007  0.14871589  1
  B  B20  1  0.66528527  0.66109066  0.45793993  1
  B  B21  1  0.91079615  0.17992014  0.88877591  1
  B  B22  1  0.76516256  0.31910860  0.80710695  1
  B  B23  1  0.44403999  0.90944923  0.69658120  1
  B  B24  1  0.58924658  0.17553266  0.88476339  1
  B  B25  1  0.21112293  0.44109235  0.68837013  1
  B  B26  1  0.98545706  0.30080802  0.45843596  1
  B  B27  1  0.08835932  0.55004622  0.73684192  1
  B  B28  1  0.88840433  0.07001486  0.25402128  1
  B  B29  1  0.04460392  0.17590984  0.64298369  1
  B  B30  1  0.28293822  0.80084323  0.58869502  1
  B  B31  1  0.70168729  0.07374186  0.18779153  1
  B  B32  1  0.67103477  0.46689535  0.99079923  1
  B  B33  1  0.33832590  0.26041406  0.66067556  1
  B  B34  1  0.60567255  0.05716781  0.07837939  1
  B  B35  1  0.09325381  0.90178493  0.51126935  1
  B  B36  1  0.12127003  0.74838110  0.42572111  1
  B  B37  1  0.88238361  0.61463290  0.74112707  1
  B  B38  1  0.00258731  0.54056196  0.42173738  1
  B  B39  1  0.65326653  0.59110504  0.73153181  1
  B  B40  1  0.78349862  0.54900532  0.40716425  1
  B  B41  1  0.84948385  0.15147457  0.57719839  1
  B  B42  1  0.21180087  0.57275115  0.48512582  1
  B  B43  1  0.67543606  0.66957964  0.10270477  1
  B  B44  1  0.75502211  0.50033597  0.19756343  1
  B  B45  1  0.50075787  0.92781484  0.93333962  1
  B  B46  1  0.06956799  0.36884114  0.90945044  1
  B  B47  1  0.71360725  0.15535931  0.32564349  1
  B  B48  1  0.52670060  0.65537407  0.79973260  1
  B  B49  1  0.47242521  0.45299012  0.10565563  1
  N  N50  1  0.71131253  0.79381596  0.13713738  1
  N  N51  1  0.13134101  0.44996579  0.80696123  1
  N  N52  1  0.34362790  0.00497286  0.28745924  1
  N  N53  1  0.76448003  0.46139399  0.31113740  1
  N  N54  1  0.41835880  0.57348468  0.61386470  1
  N  N55  1  0.79979407  0.99879809  0.19147514  1
  N  N56  1  0.09293378  0.39045099  0.03831769  1
  N  N57  1  0.57161962  0.69757905  0.04308563  1
  N  N58  1  0.75469666  0.90919980  0.72709800  1
  N  N59  1  0.62051894  0.13635599  0.42829064  1
  N  N60  1  0.45212212  0.91926628  0.82995742  1
  N  N61  1  0.22183766  0.71876751  0.94329343  1
  N  N62  1  0.94495439  0.08791381  0.61869361  1
  N  N63  1  0.73932956  0.39239927  0.90328168  1
  N  N64  1  0.54273168  0.48063650  0.98876083  1
  N  N65  1  0.01569328  0.41262378  0.38410995  1
  N  N66  1  0.55533040  0.64005191  0.42378176  1
  N  N67  1  0.19219694  0.81883080  0.52481118  1
  N  N68  1  0.99064366  0.26949602  0.87930328  1
  N  N69  1  0.98919996  0.61649962  0.76341007  1
  N  N70  1  0.83580164  0.08157526  0.87899241  1
  N  N71  1  0.37929297  0.79517183  0.65150077  1
  N  N72  1  0.21433567  0.74160659  0.04910236  1
  N  N73  1  0.72851753  0.76277918  0.52451658  1
  N  N74  1  0.26609039  0.33740234  0.61569298  1
  N  N75  1  0.00988972  0.02214680  0.22601334  1
  N  N76  1  0.22519361  0.36703404  0.37750747  1
  N  N77  1  0.77900499  0.61950740  0.69331303  1
  N  N78  1  0.06037568  0.85368170  0.39073765  1
  N  N79  1  0.33178450  0.56170325  0.40946633  1
  N  N80  1  0.88973407  0.21272591  0.45097197  1
  N  N81  1  0.56273387  0.93286829  0.03953189  1
  N  N82  1  0.61600077  0.16816593  0.74833917  1
  N  N83  1  0.57045679  0.15401806  0.00756419  1
  N  N84  1  0.07154230  0.27379158  0.55061462  1
  N  N85  1  0.09250879  0.03657827  0.96922893  1
  N  N86  1  0.41360425  0.19698963  0.70391887  1
  N  N87  1  0.40518939  0.42802253  0.21221992  1
  N  N88  1  0.88793476  0.58767709  0.45897449  1
  N  N89  1  0.18274318  0.54843922  0.62064903  1
  N  N90  1  0.30114358  0.16678817  0.06239576  1
  N  N91  1  0.59801341  0.47654556  0.69720906  1
  N  N92  1  0.72316992  0.54921077  0.08736868  1
  N  N93  1  0.89602044  0.81161227  0.24712991  1
  N  N94  1  0.11359387  0.61998133  0.41914070  1
  N  N95  1  0.30290269  0.06850739  0.36347978  1
  N  N96  1  0.10957361  0.08496579  0.71232217  1
  N  N97  1  0.31518757  0.24688208  0.99713022  1
  N  N98  1  0.84037901  0.17284171  0.33627207  1
  N  N99  1  0.49817312  0.00665959  0.61322726  1
