# generated using pymatgen
data_InBN2
_symmetry_space_group_name_H-M   'P 1'
_cell_length_a   3.46017813
_cell_length_b   5.33246600
_cell_length_c   14.83227101
_cell_angle_alpha   22.00191413
_cell_angle_beta   89.99996689
_cell_angle_gamma   71.06823021
_symmetry_Int_Tables_number   1
_chemical_formula_structural   InBN2
_chemical_formula_sum   'In1 B1 N2'
_cell_volume   51.26636267
_cell_formula_units_Z   1
loop_
 _symmetry_equiv_pos_site_id
 _symmetry_equiv_pos_as_xyz
  1  'x, y, z'
loop_
 _atom_site_type_symbol
 _atom_site_label
 _atom_site_symmetry_multiplicity
 _atom_site_fract_x
 _atom_site_fract_y
 _atom_site_fract_z
 _atom_site_occupancy
  In  In0  1  0.00000023  0.99996732  0.00000313  1
  B  B1  1  0.99999968  0.99998121  0.49999799  1
  N  N2  1  0.99999858  0.99997828  0.40954878  1
  N  N3  1  0.00000150  0.99997319  0.59045010  1
