# generated using pymatgen
data_Al2O3
_symmetry_space_group_name_H-M   'P 1'
_cell_length_a   9.88322049
_cell_length_b   9.97501508
_cell_length_c   11.32433180
_cell_angle_alpha   91.24755332
_cell_angle_beta   94.38258050
_cell_angle_gamma   86.93746441
_symmetry_Int_Tables_number   1
_chemical_formula_structural   Al2O3
_chemical_formula_sum   'Al40 O60'
_cell_volume   1111.38276146
_cell_formula_units_Z   20
loop_
 _symmetry_equiv_pos_site_id
 _symmetry_equiv_pos_as_xyz
  1  'x, y, z'
loop_
 _atom_site_type_symbol
 _atom_site_label
 _atom_site_symmetry_multiplicity
 _atom_site_fract_x
 _atom_site_fract_y
 _atom_site_fract_z
 _atom_site_occupancy
  Al  Al0  1  0.27381948  0.62085138  0.34115887  1
  Al  Al1  1  0.61036378  0.96141731  0.96096412  1
  Al  Al2  1  0.93220381  0.68083684  0.67225061  1
  Al  Al3  1  0.17102098  0.36912037  0.92269330  1
  Al  Al4  1  0.31887827  0.93317030  0.91645134  1
  Al  Al5  1  0.84678136  0.17290216  0.61370835  1
  Al  Al6  1  0.28190126  0.24973499  0.64191426  1
  Al  Al7  1  0.85709880  0.03986798  0.08059988  1
  Al  Al8  1  0.32082032  0.88739930  0.20534951  1
  Al  Al9  1  0.01285899  0.41495627  0.55693860  1
  Al  Al10  1  0.88972362  0.53367386  0.02719076  1
  Al  Al11  1  0.67099273  0.29402830  0.96250719  1
  Al  Al12  1  0.76882813  0.30999447  0.38742403  1
  Al  Al13  1  0.48618299  0.80333194  0.65312089  1
  Al  Al14  1  0.03946130  0.92404525  0.76040965  1
  Al  Al15  1  0.91580967  0.30956192  0.15329807  1
  Al  Al16  1  0.87867583  0.40976545  0.78529790  1
  Al  Al17  1  0.97835942  0.10391368  0.33990242  1
  Al  Al18  1  0.54596996  0.00110616  0.30413831  1
  Al  Al19  1  0.39796665  0.18469974  0.06085582  1
  Al  Al20  1  0.49681476  0.27247838  0.28913390  1
  Al  Al21  1  0.86880404  0.79796704  0.93921225  1
  Al  Al22  1  0.71436140  0.80015831  0.47658359  1
  Al  Al23  1  0.02716621  0.81097610  0.46068593  1
  Al  Al24  1  0.21681543  0.69631173  0.60888708  1
  Al  Al25  1  0.27559203  0.96829305  0.48253485  1
  Al  Al26  1  0.72111202  0.98479611  0.70516783  1
  Al  Al27  1  0.41559854  0.45284399  0.07438075  1
  Al  Al28  1  0.60017149  0.57326891  0.28507981  1
  Al  Al29  1  0.66590617  0.56343870  0.80526500  1
  Al  Al30  1  0.17534875  0.67413331  0.04973626  1
  Al  Al31  1  0.57428375  0.53826671  0.51594626  1
  Al  Al32  1  0.39884870  0.69943892  0.86181146  1
  Al  Al33  1  0.21659047  0.31466679  0.37827535  1
  Al  Al34  1  0.10650536  0.07175932  0.00228241  1
  Al  Al35  1  0.99143294  0.54511101  0.31666747  1
  Al  Al36  1  0.38835692  0.45234108  0.75854591  1
  Al  Al37  1  0.81798982  0.82521905  0.23857991  1
  Al  Al38  1  0.58589093  0.73857063  0.10484643  1
  Al  Al39  1  0.54126047  0.23933005  0.53424620  1
  O  O40  1  0.49837765  0.85809798  0.19587891  1
  O  O41  1  0.21996036  0.21941019  0.99700236  1
  O  O42  1  0.87896848  0.78249286  0.54461011  1
  O  O43  1  0.56115493  0.62662529  0.65891429  1
  O  O44  1  0.99565105  0.42706674  0.90966055  1
  O  O45  1  0.93941231  0.31368781  0.66762144  1
  O  O46  1  0.32656066  0.09204445  0.58775264  1
  O  O47  1  0.71301336  0.37604640  0.82610130  1
  O  O48  1  0.91199398  0.97768040  0.22905958  1
  O  O49  1  0.49749658  0.58830458  0.14004239  1
  O  O50  1  0.44675677  0.05130341  0.95302388  1
  O  O51  1  0.09249316  0.96911673  0.42894424  1
  O  O52  1  0.67116253  0.14502788  0.64104036  1
  O  O53  1  0.65938324  0.37465415  0.51917650  1
  O  O54  1  0.62997935  0.87753856  0.59882563  1
  O  O55  1  0.49937904  0.54108829  0.86609627  1
  O  O56  1  0.99511742  0.68250344  0.03335004  1
  O  O57  1  0.70829911  0.11976311  0.99579148  1
  O  O58  1  0.81707519  0.56198375  0.71515797  1
  O  O59  1  0.37105289  0.33843061  0.17786840  1
  O  O60  1  0.78389281  0.38875061  0.05223242  1
  O  O61  1  0.89792552  0.02946502  0.70023645  1
  O  O62  1  0.24362867  0.72203164  0.20428090  1
  O  O63  1  0.49469103  0.31890467  0.98893513  1
  O  O64  1  0.70614005  0.90751772  0.83913239  1
  O  O65  1  0.40211760  0.85334951  0.77958142  1
  O  O66  1  0.67438626  0.63777921  0.43237368  1
  O  O67  1  0.16947886  0.48173215  0.32907939  1
  O  O68  1  0.16498085  0.32389427  0.53274239  1
  O  O69  1  0.25949695  0.76099629  0.94343678  1
  O  O70  1  0.50365601  0.12332630  0.18956022  1
  O  O71  1  0.25051270  0.50767363  0.00391511  1
  O  O72  1  0.91137665  0.44329406  0.42047660  1
  O  O73  1  0.06133142  0.56884855  0.62442118  1
  O  O74  1  0.95174620  0.78106300  0.80095567  1
  O  O75  1  0.16886194  0.68930366  0.45221841  1
  O  O76  1  0.84090852  0.22676965  0.26153418  1
  O  O77  1  0.44359994  0.57499502  0.38927896  1
  O  O78  1  0.24606276  0.97667668  0.08163184  1
  O  O79  1  0.76618946  0.63762336  0.93245180  1
  O  O80  1  0.94950606  0.72492225  0.32530551  1
  O  O81  1  0.11042626  0.20475678  0.30356820  1
  O  O82  1  0.16032085  0.01118306  0.85198601  1
  O  O83  1  0.44154750  0.33598764  0.64850433  1
  O  O84  1  0.88257319  0.17407341  0.46736803  1
  O  O85  1  0.36373876  0.96784236  0.34831439  1
  O  O86  1  0.70289754  0.89962621  0.35034654  1
  O  O87  1  0.63098733  0.39501049  0.29153369  1
  O  O88  1  0.30748461  0.61165005  0.72686984  1
  O  O89  1  0.34989956  0.81161659  0.54835296  1
  O  O90  1  0.10597560  0.83540545  0.63730650  1
  O  O91  1  0.96217471  0.95009679  0.97878999  1
  O  O92  1  0.97006469  0.47706769  0.17142615  1
  O  O93  1  0.52041289  0.79244872  0.96590554  1
  O  O94  1  0.24967579  0.34413474  0.78304158  1
  O  O95  1  0.97650860  0.17434768  0.06749427  1
  O  O96  1  0.72120223  0.67163099  0.20465286  1
  O  O97  1  0.59925341  0.15140144  0.39852622  1
  O  O98  1  0.39337416  0.29283261  0.41558768  1
  O  O99  1  0.74458247  0.87532053  0.07424390  1
