# generated using pymatgen
data_Ti(PbN)4
_symmetry_space_group_name_H-M   'P 1'
_cell_length_a   6.86715604
_cell_length_b   8.29871951
_cell_length_c   9.43534748
_cell_angle_alpha   63.93995003
_cell_angle_beta   74.68908014
_cell_angle_gamma   52.82601119
_symmetry_Int_Tables_number   1
_chemical_formula_structural   Ti(PbN)4
_chemical_formula_sum   'Ti2 Pb8 N8'
_cell_volume   384.88824280
_cell_formula_units_Z   2
loop_
 _symmetry_equiv_pos_site_id
 _symmetry_equiv_pos_as_xyz
  1  'x, y, z'
loop_
 _atom_site_type_symbol
 _atom_site_label
 _atom_site_symmetry_multiplicity
 _atom_site_fract_x
 _atom_site_fract_y
 _atom_site_fract_z
 _atom_site_occupancy
  Ti  Ti0  1  0.74979228  0.78925451  0.75009794  1
  Ti  Ti1  1  0.25020772  0.21074549  0.24990206  1
  Pb  Pb2  1  0.74103551  0.62319088  0.12653319  1
  Pb  Pb3  1  0.25896449  0.37680912  0.87346681  1
  Pb  Pb4  1  0.78991824  0.29295082  0.95825133  1
  Pb  Pb5  1  0.21008176  0.70704918  0.04174867  1
  Pb  Pb6  1  0.71001588  0.54135422  0.54163631  1
  Pb  Pb7  1  0.28998412  0.45864578  0.45836369  1
  Pb  Pb8  1  0.24087707  0.00921595  0.62634207  1
  Pb  Pb9  1  0.75912293  0.99078405  0.37365793  1
  N  N10  1  0.96022216  0.59223750  0.63593494  1
  N  N11  1  0.03977784  0.40776250  0.36406506  1
  N  N12  1  0.95854918  0.72429469  0.89829940  1
  N  N13  1  0.04145082  0.27570531  0.10170060  1
  N  N14  1  0.53963302  0.68824610  0.86412165  1
  N  N15  1  0.46036698  0.31175390  0.13587835  1
  N  N16  1  0.45906861  0.91884624  0.39796410  1
  N  N17  1  0.54093139  0.08115376  0.60203590  1
