# generated using pymatgen
data_B2O3
_symmetry_space_group_name_H-M   'P 1'
_cell_length_a   11.66829905
_cell_length_b   10.55595990
_cell_length_c   10.53521489
_cell_angle_alpha   88.64137050
_cell_angle_beta   97.66813693
_cell_angle_gamma   95.60074656
_symmetry_Int_Tables_number   1
_chemical_formula_structural   B2O3
_chemical_formula_sum   'B40 O60'
_cell_volume   1279.80508396
_cell_formula_units_Z   20
loop_
 _symmetry_equiv_pos_site_id
 _symmetry_equiv_pos_as_xyz
  1  'x, y, z'
loop_
 _atom_site_type_symbol
 _atom_site_label
 _atom_site_symmetry_multiplicity
 _atom_site_fract_x
 _atom_site_fract_y
 _atom_site_fract_z
 _atom_site_occupancy
  B  B0  1  0.85508637  0.78415743  0.03545361  1
  B  B1  1  0.29977102  0.57001420  0.55939390  1
  B  B2  1  0.83879598  0.14327022  0.12390683  1
  B  B3  1  0.84719817  0.51173715  0.76930670  1
  B  B4  1  0.27339411  0.33109647  0.93049391  1
  B  B5  1  0.85675591  0.15916853  0.45776426  1
  B  B6  1  0.64679116  0.74581365  0.47786959  1
  B  B7  1  0.30295120  0.99206101  0.46907961  1
  B  B8  1  0.09758464  0.49208088  0.19700521  1
  B  B9  1  0.69746123  0.52238864  0.43333516  1
  B  B10  1  0.35022908  0.16010307  0.07905815  1
  B  B11  1  0.92731104  0.00820662  0.97400862  1
  B  B12  1  0.08773136  0.22556510  0.48966881  1
  B  B13  1  0.37845437  0.70131234  0.17339893  1
  B  B14  1  0.78100632  0.94111803  0.52406505  1
  B  B15  1  0.65705014  0.97364035  0.10831153  1
  B  B16  1  0.32337249  0.57425708  0.97703980  1
  B  B17  1  0.65480705  0.43855322  0.81952819  1
  B  B18  1  0.79977688  0.29077928  0.78875198  1
  B  B19  1  0.58777254  0.74804883  0.14108725  1
  B  B20  1  0.02668174  0.68894348  0.80166524  1
  B  B21  1  0.46739409  0.03155724  0.95273631  1
  B  B22  1  0.47346506  0.50921199  0.68834775  1
  B  B23  1  0.67506501  0.28174138  0.44847120  1
  B  B24  1  0.50370508  0.11875503  0.50862200  1
  B  B25  1  0.23202702  0.81828659  0.29367479  1
  B  B26  1  0.93861775  0.35509083  0.21558304  1
  B  B27  1  0.05564143  0.93003822  0.82898200  1
  B  B28  1  0.91004051  0.48233346  0.42690064  1
  B  B29  1  0.47535510  0.70233565  0.56645293  1
  B  B30  1  0.68172954  0.59978224  0.00890842  1
  B  B31  1  0.55057680  0.03340841  0.74648157  1
  B  B32  1  0.76111501  0.05920123  0.72757516  1
  B  B33  1  0.16793444  0.30037692  0.71152768  1
  B  B34  1  0.24117793  0.72088731  0.80543034  1
  B  B35  1  0.21377056  0.92474468  0.68098655  1
  B  B36  1  0.36117977  0.18521834  0.31603303  1
  B  B37  1  0.09794273  0.48737265  0.58968080  1
  B  B38  1  0.04025555  0.73034980  0.19354783  1
  B  B39  1  0.21929693  0.34653289  0.32835474  1
  O  O40  1  0.84978028  0.90052868  0.97238367  1
  O  O41  1  0.88608929  0.39085806  0.78593914  1
  O  O42  1  0.29192574  0.91276535  0.37229687  1
  O  O43  1  0.65354322  0.48785054  0.94954871  1
  O  O44  1  0.35791274  0.47810599  0.62864380  1
  O  O45  1  0.18071298  0.56124463  0.53088011  1
  O  O46  1  0.11316947  0.80970074  0.28036381  1
  O  O47  1  0.15240633  0.22077434  0.60761616  1
  O  O48  1  0.36040553  0.67762196  0.51353626  1
  O  O49  1  0.22266590  0.25949664  0.82747620  1
  O  O50  1  0.78102061  0.68065768  0.99815206  1
  O  O51  1  0.54914553  0.79353130  0.51373050  1
  O  O52  1  0.46509566  0.01600674  0.82298965  1
  O  O53  1  0.25523970  0.99121758  0.57708700  1
  O  O54  1  0.27139048  0.82388542  0.72932504  1
  O  O55  1  0.55459588  0.00225470  0.04146662  1
  O  O56  1  0.97389817  0.18028089  0.47033096  1
  O  O57  1  0.94367141  0.78073971  0.13746703  1
  O  O58  1  0.12246883  0.96719026  0.73164403  1
  O  O59  1  0.74045542  0.06994391  0.14195574  1
  O  O60  1  0.13758645  0.27018568  0.38363823  1
  O  O61  1  0.37494482  0.12420897  0.20936690  1
  O  O62  1  0.81213864  0.54487940  0.42375726  1
  O  O63  1  0.37084004  0.07994390  0.98751533  1
  O  O64  1  0.02526971  0.80603779  0.85927718  1
  O  O65  1  0.98395178  0.48547648  0.53853151  1
  O  O66  1  0.12679194  0.41633752  0.69729996  1
  O  O67  1  0.51927917  0.63507117  0.67147757  1
  O  O68  1  0.58623825  0.18313661  0.44928970  1
  O  O69  1  0.32269980  0.68462669  0.90044190  1
  O  O70  1  0.91628208  0.11444627  0.04355682  1
  O  O71  1  0.67189543  0.85087798  0.14784643  1
  O  O72  1  0.60384054  0.63488601  0.09129030  1
  O  O73  1  0.92635159  0.61810234  0.77033140  1
  O  O74  1  0.66426558  0.03223828  0.79042096  1
  O  O75  1  0.30557879  0.27266965  0.04828034  1
  O  O76  1  0.02429119  0.38932933  0.14066551  1
  O  O77  1  0.63948676  0.40094280  0.43619051  1
  O  O78  1  0.35459093  0.58944807  0.10491799  1
  O  O79  1  0.53334877  0.42263097  0.75357521  1
  O  O80  1  0.79030897  0.26138079  0.45864253  1
  O  O81  1  0.69464534  0.30708013  0.82248221  1
  O  O82  1  0.51131799  0.05173288  0.61698851  1
  O  O83  1  0.82713764  0.17274773  0.74398918  1
  O  O84  1  0.13299607  0.65383804  0.78172547  1
  O  O85  1  0.80650672  0.03674882  0.43953155  1
  O  O86  1  0.62989677  0.62080879  0.43769974  1
  O  O87  1  0.48630467  0.76680269  0.19098078  1
  O  O88  1  0.73218638  0.52657623  0.75025130  1
  O  O89  1  0.06740100  0.61151730  0.16583062  1
  O  O90  1  0.28766169  0.74639260  0.22180825  1
  O  O91  1  0.93899827  0.43318311  0.31863852  1
  O  O92  1  0.29267045  0.46011198  0.91861267  1
  O  O93  1  0.01684080  0.02215418  0.89837568  1
  O  O94  1  0.38469852  0.11068959  0.43948242  1
  O  O95  1  0.85858578  0.25210844  0.19671307  1
  O  O96  1  0.32708636  0.30200318  0.32457765  1
  O  O97  1  0.19738166  0.46301415  0.27440170  1
  O  O98  1  0.74832100  0.82090570  0.47579740  1
  O  O99  1  0.78847534  0.96364522  0.65287727  1
