# generated using pymatgen
data_AlBiN2
_symmetry_space_group_name_H-M   'P 1'
_cell_length_a   6.13407769
_cell_length_b   7.51035176
_cell_length_c   5.24492330
_cell_angle_alpha   90.00000000
_cell_angle_beta   90.00000000
_cell_angle_gamma   90.00000000
_symmetry_Int_Tables_number   1
_chemical_formula_structural   AlBiN2
_chemical_formula_sum   'Al4 Bi4 N8'
_cell_volume   241.62879726
_cell_formula_units_Z   4
loop_
 _symmetry_equiv_pos_site_id
 _symmetry_equiv_pos_as_xyz
  1  'x, y, z'
loop_
 _atom_site_type_symbol
 _atom_site_label
 _atom_site_symmetry_multiplicity
 _atom_site_fract_x
 _atom_site_fract_y
 _atom_site_fract_z
 _atom_site_occupancy
  Al  Al0  1  0.52528331  0.37015680  0.00036258  1
  Al  Al1  1  0.47471669  0.62984320  0.50036258  1
  Al  Al2  1  0.97471669  0.87015680  0.50036258  1
  Al  Al3  1  0.02528331  0.12984320  0.00036258  1
  Bi  Bi4  1  0.61905752  0.86737764  0.01827325  1
  Bi  Bi5  1  0.38094248  0.13262236  0.51827325  1
  Bi  Bi6  1  0.88094248  0.36737764  0.51827325  1
  Bi  Bi7  1  0.11905752  0.63262236  0.01827325  1
  N  N8  1  0.52312300  0.39242115  0.36397285  1
  N  N9  1  0.47687700  0.60757885  0.86397285  1
  N  N10  1  0.97687700  0.89242115  0.86397285  1
  N  N11  1  0.02312300  0.10757885  0.36397285  1
  N  N12  1  0.72026708  0.76014923  0.38739131  1
  N  N13  1  0.27973292  0.23985077  0.88739131  1
  N  N14  1  0.77973292  0.26014923  0.88739131  1
  N  N15  1  0.22026708  0.73985077  0.38739131  1
