# generated using pymatgen
data_Ir(N3O4)3
_symmetry_space_group_name_H-M   'P 1'
_cell_length_a   8.30277291
_cell_length_b   8.97463443
_cell_length_c   8.53398919
_cell_angle_alpha   53.89420215
_cell_angle_beta   56.40662911
_cell_angle_gamma   62.88918148
_symmetry_Int_Tables_number   1
_chemical_formula_structural   Ir(N3O4)3
_chemical_formula_sum   'Ir1 N9 O12'
_cell_volume   419.94128953
_cell_formula_units_Z   1
loop_
 _symmetry_equiv_pos_site_id
 _symmetry_equiv_pos_as_xyz
  1  'x, y, z'
loop_
 _atom_site_type_symbol
 _atom_site_label
 _atom_site_symmetry_multiplicity
 _atom_site_fract_x
 _atom_site_fract_y
 _atom_site_fract_z
 _atom_site_occupancy
  Ir  Ir0  1  0.82343294  0.17574435  0.99572062  1
  N  N1  1  0.20436200  0.75404830  0.89523626  1
  N  N2  1  0.25293434  0.13334990  0.75665656  1
  N  N3  1  0.21832387  0.89015956  0.11424421  1
  N  N4  1  0.92764922  0.19801480  0.26971169  1
  N  N5  1  0.98337368  0.65297028  0.16905456  1
  N  N6  1  0.76228618  0.10694040  0.84387817  1
  N  N7  1  0.50503983  0.52172698  0.49233491  1
  N  N8  1  0.78882350  0.62064796  0.79493737  1
  N  N9  1  0.27666130  0.24310481  0.25581748  1
  O  O10  1  0.39496565  0.17692922  0.59422178  1
  O  O11  1  0.34910195  0.85293023  0.14929001  1
  O  O12  1  0.31534863  0.63987727  0.84190490  1
  O  O13  1  0.67416133  0.02764047  0.24434892  1
  O  O14  1  0.00968243  0.62944145  0.31088626  1
  O  O15  1  0.00144081  0.03049039  0.32423079  1
  O  O16  1  0.86939443  0.29224409  0.11697112  1
  O  O17  1  0.07666135  0.23603125  0.74451014  1
  O  O18  1  0.73711356  0.51749915  0.79930192  1
  O  O19  1  0.84550211  0.62729570  0.17905449  1
  O  O20  1  0.58911351  0.15701681  0.86182419  1
  O  O21  1  0.89462640  0.01589662  0.74586564  1
