# generated using pymatgen
data_Ca7(ZnN3)2
_symmetry_space_group_name_H-M   'P 1'
_cell_length_a   6.74580960
_cell_length_b   11.49815465
_cell_length_c   6.11236761
_cell_angle_alpha   89.99999640
_cell_angle_beta   88.84445290
_cell_angle_gamma   31.54339327
_symmetry_Int_Tables_number   1
_chemical_formula_structural   Ca7(ZnN3)2
_chemical_formula_sum   'Ca7 Zn2 N6'
_cell_volume   247.83928712
_cell_formula_units_Z   1
loop_
 _symmetry_equiv_pos_site_id
 _symmetry_equiv_pos_as_xyz
  1  'x, y, z'
loop_
 _atom_site_type_symbol
 _atom_site_label
 _atom_site_symmetry_multiplicity
 _atom_site_fract_x
 _atom_site_fract_y
 _atom_site_fract_z
 _atom_site_occupancy
  Ca  Ca0  1  -0.00000000  0.50000000  -0.00000000  1
  Ca  Ca1  1  0.00000000  0.35293988  0.50000000  1
  Ca  Ca2  1  -0.00000000  0.64706012  0.50000000  1
  Ca  Ca3  1  0.70998857  0.98625637  0.82392213  1
  Ca  Ca4  1  0.70998857  0.30375506  0.82392213  1
  Ca  Ca5  1  0.29001143  0.01374363  0.17607787  1
  Ca  Ca6  1  0.29001143  0.69624494  0.17607787  1
  Zn  Zn7  1  0.37264711  0.81367594  0.63907492  1
  Zn  Zn8  1  0.62735289  0.18632406  0.36092508  1
  N  N9  1  0.40736300  0.95551755  0.77354810  1
  N  N10  1  0.40736300  0.63711945  0.77354810  1
  N  N11  1  0.59263700  0.04448245  0.22645190  1
  N  N12  1  0.59263700  0.36288055  0.22645190  1
  N  N13  1  0.63483518  0.68258291  0.32188074  1
  N  N14  1  0.36516482  0.31741709  0.67811926  1
