# generated using pymatgen
data_Sc2GaN3
_symmetry_space_group_name_H-M   'P 1'
_cell_length_a   5.61015450
_cell_length_b   9.76035101
_cell_length_c   11.08757269
_cell_angle_alpha   90.00000332
_cell_angle_beta   93.48628477
_cell_angle_gamma   150.44498131
_symmetry_Int_Tables_number   1
_chemical_formula_structural   Sc2GaN3
_chemical_formula_sum   'Sc8 Ga4 N12'
_cell_volume   297.18455709
_cell_formula_units_Z   4
loop_
 _symmetry_equiv_pos_site_id
 _symmetry_equiv_pos_as_xyz
  1  'x, y, z'
loop_
 _atom_site_type_symbol
 _atom_site_label
 _atom_site_symmetry_multiplicity
 _atom_site_fract_x
 _atom_site_fract_y
 _atom_site_fract_z
 _atom_site_occupancy
  Sc  Sc0  1  0.45524723  0.01861619  0.86341807  1
  Sc  Sc1  1  0.54475277  0.56336796  0.63658193  1
  Sc  Sc2  1  0.54475277  0.98138381  0.13658193  1
  Sc  Sc3  1  0.45524723  0.43663204  0.36341807  1
  Sc  Sc4  1  0.61362087  0.92034656  0.56783039  1
  Sc  Sc5  1  0.38637913  0.30672569  0.93216961  1
  Sc  Sc6  1  0.38637913  0.07965344  0.43216961  1
  Sc  Sc7  1  0.61362087  0.69327431  0.06783039  1
  Ga  Ga8  1  0.55785839  0.27602188  0.66500588  1
  Ga  Ga9  1  0.44214161  0.71816348  0.83499412  1
  Ga  Ga10  1  0.44214161  0.72397812  0.33499412  1
  Ga  Ga11  1  0.55785839  0.28183652  0.16500588  1
  N  N12  1  0.00000000  0.62985366  0.75000000  1
  N  N13  1  -0.00000000  0.37014634  0.25000000  1
  N  N14  1  0.75939034  0.20169948  0.60959854  1
  N  N15  1  0.24060966  0.44231013  0.89040146  1
  N  N16  1  0.24060966  0.79830052  0.39040146  1
  N  N17  1  0.75939034  0.55768987  0.10959854  1
  N  N18  1  0.34573431  0.06606354  0.02175899  1
  N  N19  1  0.65426569  0.72032823  0.47824101  1
  N  N20  1  0.65426569  0.93393646  0.97824101  1
  N  N21  1  0.34573431  0.27967177  0.52175899  1
  N  N22  1  -0.00000000  0.96129949  0.75000000  1
  N  N23  1  0.00000000  0.03870051  0.25000000  1
