# generated using pymatgen
data_NaSi5N7
_symmetry_space_group_name_H-M   'P 1'
_cell_length_a   11.66475510
_cell_length_b   20.90902784
_cell_length_c   4.90792587
_cell_angle_alpha   90.00000000
_cell_angle_beta   90.00000000
_cell_angle_gamma   90.00000000
_symmetry_Int_Tables_number   1
_chemical_formula_structural   NaSi5N7
_chemical_formula_sum   'Na8 Si40 N56'
_cell_volume   1197.03668605
_cell_formula_units_Z   8
loop_
 _symmetry_equiv_pos_site_id
 _symmetry_equiv_pos_as_xyz
  1  'x, y, z'
loop_
 _atom_site_type_symbol
 _atom_site_label
 _atom_site_symmetry_multiplicity
 _atom_site_fract_x
 _atom_site_fract_y
 _atom_site_fract_z
 _atom_site_occupancy
  Na  Na0  1  0.78423774  0.99241009  0.43643021  1
  Na  Na1  1  0.21576226  0.00758991  0.93643021  1
  Na  Na2  1  0.71576226  0.49241009  0.93643021  1
  Na  Na3  1  0.28423774  0.50758991  0.43643021  1
  Na  Na4  1  0.14593839  0.81083519  0.44558606  1
  Na  Na5  1  0.85406161  0.18916481  0.94558606  1
  Na  Na6  1  0.35406161  0.31083519  0.94558606  1
  Na  Na7  1  0.64593839  0.68916481  0.44558606  1
  Si  Si8  1  0.65551151  0.84979979  0.72533972  1
  Si  Si9  1  0.34448849  0.15020021  0.22533972  1
  Si  Si10  1  0.84448849  0.34979979  0.22533972  1
  Si  Si11  1  0.15551151  0.65020021  0.72533972  1
  Si  Si12  1  0.15488284  0.65080683  0.22179731  1
  Si  Si13  1  0.84511716  0.34919317  0.72179731  1
  Si  Si14  1  0.34511716  0.15080683  0.72179731  1
  Si  Si15  1  0.65488284  0.84919317  0.22179731  1
  Si  Si16  1  0.85898464  0.77798792  0.96972553  1
  Si  Si17  1  0.14101536  0.22201208  0.46972553  1
  Si  Si18  1  0.64101536  0.27798792  0.46972553  1
  Si  Si19  1  0.35898464  0.72201208  0.96972553  1
  Si  Si20  1  0.42028529  0.79978692  0.47138542  1
  Si  Si21  1  0.57971471  0.20021308  0.97138542  1
  Si  Si22  1  0.07971471  0.29978692  0.97138542  1
  Si  Si23  1  0.92028529  0.70021308  0.47138542  1
  Si  Si24  1  0.06012899  0.96927786  0.45962920  1
  Si  Si25  1  0.93987101  0.03072214  0.95962920  1
  Si  Si26  1  0.43987101  0.46927786  0.95962920  1
  Si  Si27  1  0.56012899  0.53072214  0.45962920  1
  Si  Si28  1  0.50981479  0.04284550  0.46821838  1
  Si  Si29  1  0.49018521  0.95715450  0.96821838  1
  Si  Si30  1  0.99018521  0.54284550  0.96821838  1
  Si  Si31  1  0.00981479  0.45715450  0.46821838  1
  Si  Si32  1  0.69781285  0.13948760  0.45641382  1
  Si  Si33  1  0.30218715  0.86051240  0.95641382  1
  Si  Si34  1  0.80218715  0.63948760  0.95641382  1
  Si  Si35  1  0.19781285  0.36051240  0.45641382  1
  Si  Si36  1  0.66899405  0.06283145  0.95437013  1
  Si  Si37  1  0.33100595  0.93716855  0.45437013  1
  Si  Si38  1  0.83100595  0.56283145  0.45437013  1
  Si  Si39  1  0.16899405  0.43716855  0.95437013  1
  Si  Si40  1  0.96593827  0.10991601  0.45931918  1
  Si  Si41  1  0.03406173  0.89008399  0.95931918  1
  Si  Si42  1  0.53406173  0.60991601  0.95931918  1
  Si  Si43  1  0.46593827  0.39008399  0.45931918  1
  Si  Si44  1  0.89689686  0.85014973  0.47081472  1
  Si  Si45  1  0.10310314  0.14985027  0.97081472  1
  Si  Si46  1  0.60310314  0.35014973  0.97081472  1
  Si  Si47  1  0.39689686  0.64985027  0.47081472  1
  N  N48  1  0.75234579  0.87622480  0.47005403  1
  N  N49  1  0.24765421  0.12377520  0.97005403  1
  N  N50  1  0.74765421  0.37622480  0.97005403  1
  N  N51  1  0.25234579  0.62377520  0.47005403  1
  N  N52  1  0.71569441  0.80096525  0.97363415  1
  N  N53  1  0.28430559  0.19903475  0.47363415  1
  N  N54  1  0.78430559  0.30096525  0.47363415  1
  N  N55  1  0.21569441  0.69903475  0.97363415  1
  N  N56  1  0.98430681  0.03380111  0.30644662  1
  N  N57  1  0.01569319  0.96619889  0.80644662  1
  N  N58  1  0.51569319  0.53380111  0.80644662  1
  N  N59  1  0.48430681  0.46619889  0.30644662  1
  N  N60  1  0.40537707  0.10230984  0.47648416  1
  N  N61  1  0.59462293  0.89769016  0.97648416  1
  N  N62  1  0.09462293  0.60230984  0.97648416  1
  N  N63  1  0.90537707  0.39769016  0.47648416  1
  N  N64  1  0.93377002  0.83785161  0.80542029  1
  N  N65  1  0.06622998  0.16214839  0.30542029  1
  N  N66  1  0.56622998  0.33785161  0.30542029  1
  N  N67  1  0.43377002  0.66214839  0.80542029  1
  N  N68  1  0.37238342  0.79404838  0.80486439  1
  N  N69  1  0.62761658  0.20595162  0.30486439  1
  N  N70  1  0.12761658  0.29404838  0.30486439  1
  N  N71  1  0.87238342  0.70595162  0.80486439  1
  N  N72  1  0.34181058  0.85895571  0.30485313  1
  N  N73  1  0.65818942  0.14104429  0.80485313  1
  N  N74  1  0.15818942  0.35895571  0.80485313  1
  N  N75  1  0.84181058  0.64104429  0.30485313  1
  N  N76  1  0.06625388  0.68188366  0.47458587  1
  N  N77  1  0.93374612  0.31811634  0.97458587  1
  N  N78  1  0.43374612  0.18188366  0.97458587  1
  N  N79  1  0.56625388  0.81811634  0.47458587  1
  N  N80  1  0.55037268  0.02204284  0.79956065  1
  N  N81  1  0.44962732  0.97795716  0.29956065  1
  N  N82  1  0.94962732  0.52204284  0.29956065  1
  N  N83  1  0.05037268  0.47795716  0.79956065  1
  N  N84  1  0.36916054  0.92812454  0.80192580  1
  N  N85  1  0.63083946  0.07187546  0.30192580  1
  N  N86  1  0.13083946  0.42812454  0.30192580  1
  N  N87  1  0.86916054  0.57187546  0.80192580  1
  N  N88  1  0.99374680  0.89968178  0.30680716  1
  N  N89  1  0.00625320  0.10031822  0.80680716  1
  N  N90  1  0.50625320  0.39968178  0.80680716  1
  N  N91  1  0.49374680  0.60031822  0.30680716  1
  N  N92  1  0.83769865  0.14215815  0.40738236  1
  N  N93  1  0.16230135  0.85784185  0.90738236  1
  N  N94  1  0.66230135  0.64215815  0.90738236  1
  N  N95  1  0.33769865  0.35784185  0.40738236  1
  N  N96  1  0.79709335  0.02804609  0.91019079  1
  N  N97  1  0.20290665  0.97195391  0.41019079  1
  N  N98  1  0.70290665  0.52804609  0.41019079  1
  N  N99  1  0.29709335  0.47195391  0.91019079  1
  N  N100  1  0.90128206  0.77427886  0.30849090  1
  N  N101  1  0.09871794  0.22572114  0.80849090  1
  N  N102  1  0.59871794  0.27427886  0.80849090  1
  N  N103  1  0.40128206  0.72572114  0.30849090  1
