# generated using pymatgen
data_Y2Mg3N4
_symmetry_space_group_name_H-M   'P 1'
_cell_length_a   6.76261918
_cell_length_b   7.25264265
_cell_length_c   6.07136547
_cell_angle_alpha   90.00000024
_cell_angle_beta   88.24826342
_cell_angle_gamma   122.42739102
_symmetry_Int_Tables_number   1
_chemical_formula_structural   Y2Mg3N4
_chemical_formula_sum   'Y4 Mg6 N8'
_cell_volume   251.18396812
_cell_formula_units_Z   2
loop_
 _symmetry_equiv_pos_site_id
 _symmetry_equiv_pos_as_xyz
  1  'x, y, z'
loop_
 _atom_site_type_symbol
 _atom_site_label
 _atom_site_symmetry_multiplicity
 _atom_site_fract_x
 _atom_site_fract_y
 _atom_site_fract_z
 _atom_site_occupancy
  Y  Y0  1  0.51145066  0.13811740  0.71915928  1
  Y  Y1  1  0.48854934  0.62666674  0.78084072  1
  Y  Y2  1  0.48854934  0.86188260  0.28084072  1
  Y  Y3  1  0.51145066  0.37333326  0.21915928  1
  Mg  Mg4  1  0.11783032  0.91629822  0.06202924  1
  Mg  Mg5  1  0.88216968  0.79846690  0.43797076  1
  Mg  Mg6  1  0.88216968  0.08370178  0.93797076  1
  Mg  Mg7  1  0.11783032  0.20153310  0.56202924  1
  Mg  Mg8  1  0.00000000  0.53787024  0.75000000  1
  Mg  Mg9  1  1.00000000  0.46212976  0.25000000  1
  N  N10  1  0.25392950  0.02662104  0.39351581  1
  N  N11  1  0.74607050  0.77269154  0.10648419  1
  N  N12  1  0.74607050  0.97337896  0.60648419  1
  N  N13  1  0.25392950  0.22730846  0.89351581  1
  N  N14  1  0.74332300  0.26422822  0.03388984  1
  N  N15  1  0.25667700  0.52090623  0.46611016  1
  N  N16  1  0.25667700  0.73577178  0.96611016  1
  N  N17  1  0.74332300  0.47909377  0.53388984  1
