# generated using pymatgen
data_Ca4SN4
_symmetry_space_group_name_H-M   'P 1'
_cell_length_a   6.22735783
_cell_length_b   6.20696448
_cell_length_c   8.63459102
_cell_angle_alpha   83.24746439
_cell_angle_beta   69.69569839
_cell_angle_gamma   73.42837548
_symmetry_Int_Tables_number   1
_chemical_formula_structural   Ca4SN4
_chemical_formula_sum   'Ca8 S2 N8'
_cell_volume   299.94863296
_cell_formula_units_Z   2
loop_
 _symmetry_equiv_pos_site_id
 _symmetry_equiv_pos_as_xyz
  1  'x, y, z'
loop_
 _atom_site_type_symbol
 _atom_site_label
 _atom_site_symmetry_multiplicity
 _atom_site_fract_x
 _atom_site_fract_y
 _atom_site_fract_z
 _atom_site_occupancy
  Ca  Ca0  1  0.82237547  0.60094087  0.15825134  1
  Ca  Ca1  1  0.17762453  0.39905913  0.84174866  1
  Ca  Ca2  1  0.69496793  0.19482411  0.00066539  1
  Ca  Ca3  1  0.30503207  0.80517589  0.99933461  1
  Ca  Ca4  1  0.71159349  0.48971558  0.57940273  1
  Ca  Ca5  1  0.28840651  0.51028442  0.42059727  1
  Ca  Ca6  1  0.23392309  0.98751800  0.57325509  1
  Ca  Ca7  1  0.76607691  0.01248200  0.42674491  1
  S  S8  1  0.81419290  0.78677831  0.80201461  1
  S  S9  1  0.18580710  0.21322169  0.19798539  1
  N  N10  1  0.94178103  0.75604093  0.60748286  1
  N  N11  1  0.05821897  0.24395907  0.39251714  1
  N  N12  1  0.00741426  0.82156928  0.88233759  1
  N  N13  1  0.99258574  0.17843072  0.11766241  1
  N  N14  1  0.73610995  0.55322296  0.88174910  1
  N  N15  1  0.26389005  0.44677704  0.11825090  1
  N  N16  1  0.56172306  0.74162338  0.39728533  1
  N  N17  1  0.43827694  0.25837662  0.60271467  1
