# generated using pymatgen
data_InGeN2
_symmetry_space_group_name_H-M   'P 1'
_cell_length_a   5.79843675
_cell_length_b   10.77225140
_cell_length_c   14.18052614
_cell_angle_alpha   90.00000000
_cell_angle_beta   90.00000000
_cell_angle_gamma   90.00000000
_symmetry_Int_Tables_number   1
_chemical_formula_structural   InGeN2
_chemical_formula_sum   'In16 Ge16 N32'
_cell_volume   885.74712076
_cell_formula_units_Z   16
loop_
 _symmetry_equiv_pos_site_id
 _symmetry_equiv_pos_as_xyz
  1  'x, y, z'
loop_
 _atom_site_type_symbol
 _atom_site_label
 _atom_site_symmetry_multiplicity
 _atom_site_fract_x
 _atom_site_fract_y
 _atom_site_fract_z
 _atom_site_occupancy
  In  In0  1  0.80313935  0.99961204  0.41920392  1
  In  In1  1  0.30313935  0.50038796  0.58079608  1
  In  In2  1  0.19686065  0.49961204  0.08079608  1
  In  In3  1  0.69686065  0.00038796  0.91920392  1
  In  In4  1  0.19686065  0.00038796  0.58079608  1
  In  In5  1  0.69686065  0.49961204  0.41920392  1
  In  In6  1  0.80313935  0.50038796  0.91920392  1
  In  In7  1  0.30313935  0.99961204  0.08079608  1
  In  In8  1  0.89879304  0.22737310  0.32171842  1
  In  In9  1  0.39879304  0.27262690  0.67828158  1
  In  In10  1  0.10120696  0.72737310  0.17828158  1
  In  In11  1  0.60120696  0.77262690  0.82171842  1
  In  In12  1  0.10120696  0.77262690  0.67828158  1
  In  In13  1  0.60120696  0.72737310  0.32171842  1
  In  In14  1  0.89879304  0.27262690  0.82171842  1
  In  In15  1  0.39879304  0.22737310  0.17828158  1
  Ge  Ge16  1  0.79086034  0.99468560  0.18771123  1
  Ge  Ge17  1  0.29086034  0.50531440  0.81228877  1
  Ge  Ge18  1  0.20913966  0.49468560  0.31228877  1
  Ge  Ge19  1  0.70913966  0.00531440  0.68771123  1
  Ge  Ge20  1  0.20913966  0.00531440  0.81228877  1
  Ge  Ge21  1  0.70913966  0.49468560  0.18771123  1
  Ge  Ge22  1  0.79086034  0.50531440  0.68771123  1
  Ge  Ge23  1  0.29086034  0.99468560  0.31228877  1
  Ge  Ge24  1  0.86951961  0.26258650  0.06048788  1
  Ge  Ge25  1  0.36951961  0.23741350  0.93951212  1
  Ge  Ge26  1  0.13048039  0.76258650  0.43951212  1
  Ge  Ge27  1  0.63048039  0.73741350  0.56048788  1
  Ge  Ge28  1  0.13048039  0.73741350  0.93951212  1
  Ge  Ge29  1  0.63048039  0.76258650  0.06048788  1
  Ge  Ge30  1  0.86951961  0.23741350  0.56048788  1
  Ge  Ge31  1  0.36951961  0.26258650  0.43951212  1
  N  N32  1  0.41793056  0.43151482  0.21956460  1
  N  N33  1  0.91793056  0.06848518  0.78043540  1
  N  N34  1  0.58206944  0.93151482  0.28043540  1
  N  N35  1  0.08206944  0.56848518  0.71956460  1
  N  N36  1  0.58206944  0.56848518  0.78043540  1
  N  N37  1  0.08206944  0.93151482  0.21956460  1
  N  N38  1  0.41793056  0.06848518  0.71956460  1
  N  N39  1  0.91793056  0.43151482  0.28043540  1
  N  N40  1  0.69408853  0.29968813  0.45862543  1
  N  N41  1  0.19408853  0.20031187  0.54137457  1
  N  N42  1  0.30591147  0.79968813  0.04137457  1
  N  N43  1  0.80591147  0.70031187  0.95862543  1
  N  N44  1  0.30591147  0.70031187  0.54137457  1
  N  N45  1  0.80591147  0.79968813  0.45862543  1
  N  N46  1  0.69408853  0.20031187  0.95862543  1
  N  N47  1  0.19408853  0.29968813  0.04137457  1
  N  N48  1  0.77438157  0.42666125  0.07166411  1
  N  N49  1  0.27438157  0.07333875  0.92833589  1
  N  N50  1  0.22561843  0.92666125  0.42833589  1
  N  N51  1  0.72561843  0.57333875  0.57166411  1
  N  N52  1  0.22561843  0.57333875  0.92833589  1
  N  N53  1  0.72561843  0.92666125  0.07166411  1
  N  N54  1  0.77438157  0.07333875  0.57166411  1
  N  N55  1  0.27438157  0.42666125  0.42833589  1
  N  N56  1  0.79394749  0.17276031  0.17334041  1
  N  N57  1  0.29394749  0.32723969  0.82665959  1
  N  N58  1  0.20605251  0.67276031  0.32665959  1
  N  N59  1  0.70605251  0.82723969  0.67334041  1
  N  N60  1  0.20605251  0.82723969  0.82665959  1
  N  N61  1  0.70605251  0.67276031  0.17334041  1
  N  N62  1  0.79394749  0.32723969  0.67334041  1
  N  N63  1  0.29394749  0.17276031  0.32665959  1
