# generated using pymatgen
data_Sr3(InN2)2
_symmetry_space_group_name_H-M   'P 1'
_cell_length_a   7.40261689
_cell_length_b   9.22173623
_cell_length_c   6.17649989
_cell_angle_alpha   90.00000192
_cell_angle_beta   90.62305871
_cell_angle_gamma   128.52602301
_symmetry_Int_Tables_number   1
_chemical_formula_structural   Sr3(InN2)2
_chemical_formula_sum   'Sr6 In4 N8'
_cell_volume   329.82672761
_cell_formula_units_Z   2
loop_
 _symmetry_equiv_pos_site_id
 _symmetry_equiv_pos_as_xyz
  1  'x, y, z'
loop_
 _atom_site_type_symbol
 _atom_site_label
 _atom_site_symmetry_multiplicity
 _atom_site_fract_x
 _atom_site_fract_y
 _atom_site_fract_z
 _atom_site_occupancy
  Sr  Sr0  1  0.22834786  0.97694056  0.05420581  1
  Sr  Sr1  1  0.77165214  0.74859270  0.44579419  1
  Sr  Sr2  1  0.77165214  0.02305944  0.94579419  1
  Sr  Sr3  1  0.22834786  0.25140730  0.55420581  1
  Sr  Sr4  1  -0.00000000  0.60299177  0.75000000  1
  Sr  Sr5  1  0.00000000  0.39700823  0.25000000  1
  In  In6  1  0.59125611  0.17693529  0.60128839  1
  In  In7  1  0.40874389  0.58567918  0.89871161  1
  In  In8  1  0.40874389  0.82306471  0.39871161  1
  In  In9  1  0.59125611  0.41432082  0.10128839  1
  N  N10  1  0.22494689  0.94025729  0.50959110  1
  N  N11  1  0.77505311  0.71531040  0.99040890  1
  N  N12  1  0.77505311  0.05974271  0.49040890  1
  N  N13  1  0.22494689  0.28468960  0.00959110  1
  N  N14  1  0.68968598  0.25807721  0.94351665  1
  N  N15  1  0.31031402  0.56839124  0.55648335  1
  N  N16  1  0.31031402  0.74192279  0.05648335  1
  N  N17  1  0.68968598  0.43160876  0.44351665  1
