# generated using pymatgen
data_KFeI3
_symmetry_space_group_name_H-M   'P 1'
_cell_length_a   4.06113512
_cell_length_b   9.79062764
_cell_length_c   16.30112515
_cell_angle_alpha   90.00000000
_cell_angle_beta   90.00000000
_cell_angle_gamma   90.00000000
_symmetry_Int_Tables_number   1
_chemical_formula_structural   KFeI3
_chemical_formula_sum   'K4 Fe4 I12'
_cell_volume   648.15004378
_cell_formula_units_Z   4
loop_
 _symmetry_equiv_pos_site_id
 _symmetry_equiv_pos_as_xyz
  1  'x, y, z'
loop_
 _atom_site_type_symbol
 _atom_site_label
 _atom_site_symmetry_multiplicity
 _atom_site_fract_x
 _atom_site_fract_y
 _atom_site_fract_z
 _atom_site_occupancy
  K  K0  1  0.75000000  0.55968985  0.17220865  1
  K  K1  1  0.25000000  0.44031015  0.82779135  1
  K  K2  1  0.75000000  0.05968985  0.32779135  1
  K  K3  1  0.25000000  0.94031015  0.67220865  1
  Fe  Fe4  1  0.75000000  0.85164374  0.95158802  1
  Fe  Fe5  1  0.25000000  0.14835626  0.04841198  1
  Fe  Fe6  1  0.75000000  0.35164374  0.54841198  1
  Fe  Fe7  1  0.25000000  0.64835626  0.45158802  1
  I  I8  1  0.25000000  0.51450543  0.58871144  1
  I  I9  1  0.75000000  0.48549457  0.41128856  1
  I  I10  1  0.25000000  0.01450543  0.91128856  1
  I  I11  1  0.75000000  0.98549457  0.08871144  1
  I  I12  1  0.25000000  0.68759126  0.00055188  1
  I  I13  1  0.75000000  0.31240874  0.99944812  1
  I  I14  1  0.25000000  0.18759126  0.49944812  1
  I  I15  1  0.75000000  0.81240874  0.50055188  1
  I  I16  1  0.75000000  0.73549632  0.80118118  1
  I  I17  1  0.25000000  0.26450368  0.19881882  1
  I  I18  1  0.75000000  0.23549632  0.69881882  1
  I  I19  1  0.25000000  0.76450368  0.30118118  1
