# generated using pymatgen
data_Zr(ZnN)4
_symmetry_space_group_name_H-M   'P 1'
_cell_length_a   5.58482682
_cell_length_b   5.65026491
_cell_length_c   8.81205925
_cell_angle_alpha   65.95788134
_cell_angle_beta   87.27991446
_cell_angle_gamma   65.21353808
_symmetry_Int_Tables_number   1
_chemical_formula_structural   Zr(ZnN)4
_chemical_formula_sum   'Zr2 Zn8 N8'
_cell_volume   227.98741664
_cell_formula_units_Z   2
loop_
 _symmetry_equiv_pos_site_id
 _symmetry_equiv_pos_as_xyz
  1  'x, y, z'
loop_
 _atom_site_type_symbol
 _atom_site_label
 _atom_site_symmetry_multiplicity
 _atom_site_fract_x
 _atom_site_fract_y
 _atom_site_fract_z
 _atom_site_occupancy
  Zr  Zr0  1  0.76695349  0.74037403  0.80896065  1
  Zr  Zr1  1  0.23304651  0.25962597  0.19103935  1
  Zn  Zn2  1  0.66754929  0.62880855  0.21281871  1
  Zn  Zn3  1  0.33245071  0.37119145  0.78718129  1
  Zn  Zn4  1  0.80023962  0.11532806  0.06837577  1
  Zn  Zn5  1  0.19976038  0.88467194  0.93162423  1
  Zn  Zn6  1  0.76794473  0.46674472  0.55411494  1
  Zn  Zn7  1  0.23205527  0.53325528  0.44588506  1
  Zn  Zn8  1  0.26782644  0.92507435  0.55593022  1
  Zn  Zn9  1  0.73217356  0.07492565  0.44406978  1
  N  N10  1  0.96071228  0.67013125  0.60321531  1
  N  N11  1  0.03928772  0.32986875  0.39678469  1
  N  N12  1  0.89673836  0.75888038  0.03337245  1
  N  N13  1  0.10326164  0.24111962  0.96662755  1
  N  N14  1  0.41554070  0.69000044  0.79870761  1
  N  N15  1  0.58445930  0.30999956  0.20129239  1
  N  N16  1  0.40245187  0.80302645  0.34897194  1
  N  N17  1  0.59754813  0.19697355  0.65102806  1
