# generated using pymatgen
data_Mg4SiN4
_symmetry_space_group_name_H-M   'P 1'
_cell_length_a   5.22345168
_cell_length_b   10.27480625
_cell_length_c   8.37497878
_cell_angle_alpha   90.00000000
_cell_angle_beta   90.00000000
_cell_angle_gamma   90.00000000
_symmetry_Int_Tables_number   1
_chemical_formula_structural   Mg4SiN4
_chemical_formula_sum   'Mg16 Si4 N16'
_cell_volume   449.48472561
_cell_formula_units_Z   4
loop_
 _symmetry_equiv_pos_site_id
 _symmetry_equiv_pos_as_xyz
  1  'x, y, z'
loop_
 _atom_site_type_symbol
 _atom_site_label
 _atom_site_symmetry_multiplicity
 _atom_site_fract_x
 _atom_site_fract_y
 _atom_site_fract_z
 _atom_site_occupancy
  Mg  Mg0  1  0.14894062  0.37073114  0.60847057  1
  Mg  Mg1  1  0.35105938  0.62926886  0.60847057  1
  Mg  Mg2  1  0.14894062  0.12926886  0.89152943  1
  Mg  Mg3  1  0.35105938  0.87073114  0.89152943  1
  Mg  Mg4  1  0.85105938  0.62926886  0.39152943  1
  Mg  Mg5  1  0.64894062  0.37073114  0.39152943  1
  Mg  Mg6  1  0.85105938  0.87073114  0.10847057  1
  Mg  Mg7  1  0.64894062  0.12926886  0.10847057  1
  Mg  Mg8  1  0.75000000  0.50000000  0.05423410  1
  Mg  Mg9  1  0.75000000  0.00000000  0.44576590  1
  Mg  Mg10  1  0.25000000  0.50000000  0.94576590  1
  Mg  Mg11  1  0.25000000  0.00000000  0.55423410  1
  Mg  Mg12  1  0.69200226  0.25000000  0.75000000  1
  Mg  Mg13  1  0.80799774  0.75000000  0.75000000  1
  Mg  Mg14  1  0.30799774  0.75000000  0.25000000  1
  Mg  Mg15  1  0.19200226  0.25000000  0.25000000  1
  Si  Si16  1  0.75000000  0.50000000  0.73400096  1
  Si  Si17  1  0.75000000  0.00000000  0.76599904  1
  Si  Si18  1  0.25000000  0.50000000  0.26599904  1
  Si  Si19  1  0.25000000  0.00000000  0.23400096  1
  N  N20  1  0.53559013  0.39984477  0.62714000  1
  N  N21  1  0.96440987  0.60015523  0.62714000  1
  N  N22  1  0.53559013  0.10015523  0.87286000  1
  N  N23  1  0.96440987  0.89984477  0.87286000  1
  N  N24  1  0.46440987  0.60015523  0.37286000  1
  N  N25  1  0.03559013  0.39984477  0.37286000  1
  N  N26  1  0.46440987  0.89984477  0.12714000  1
  N  N27  1  0.03559013  0.10015523  0.12714000  1
  N  N28  1  0.94602091  0.10729250  0.65165896  1
  N  N29  1  0.55397909  0.89270750  0.65165896  1
  N  N30  1  0.94602091  0.39270750  0.84834104  1
  N  N31  1  0.55397909  0.60729250  0.84834104  1
  N  N32  1  0.05397909  0.89270750  0.34834104  1
  N  N33  1  0.44602091  0.10729250  0.34834104  1
  N  N34  1  0.05397909  0.60729250  0.15165896  1
  N  N35  1  0.44602091  0.39270750  0.15165896  1
