# generated using pymatgen
data_Al2O3
_symmetry_space_group_name_H-M   'P 1'
_cell_length_a   10.70903777
_cell_length_b   10.44944001
_cell_length_c   9.82677945
_cell_angle_alpha   87.15967058
_cell_angle_beta   90.64721675
_cell_angle_gamma   90.19530310
_symmetry_Int_Tables_number   1
_chemical_formula_structural   Al2O3
_chemical_formula_sum   'Al40 O60'
_cell_volume   1098.22504591
_cell_formula_units_Z   20
loop_
 _symmetry_equiv_pos_site_id
 _symmetry_equiv_pos_as_xyz
  1  'x, y, z'
loop_
 _atom_site_type_symbol
 _atom_site_label
 _atom_site_symmetry_multiplicity
 _atom_site_fract_x
 _atom_site_fract_y
 _atom_site_fract_z
 _atom_site_occupancy
  Al  Al0  1  0.78733098  0.38219006  0.62550219  1
  Al  Al1  1  0.72359445  0.95480292  0.35067510  1
  Al  Al2  1  0.66630567  0.60156728  0.78239335  1
  Al  Al3  1  0.26734317  0.64099064  0.47250280  1
  Al  Al4  1  0.92102427  0.49062545  0.17211059  1
  Al  Al5  1  0.21742934  0.89696033  0.53770011  1
  Al  Al6  1  0.04296161  0.82590001  0.78536636  1
  Al  Al7  1  0.09206928  0.20544959  0.40700948  1
  Al  Al8  1  0.62956748  0.15020276  0.09041734  1
  Al  Al9  1  0.87281328  0.27383462  0.93819760  1
  Al  Al10  1  0.50802860  0.58231415  0.55862528  1
  Al  Al11  1  0.19943833  0.59207814  0.75035713  1
  Al  Al12  1  0.58160858  0.20781370  0.44730122  1
  Al  Al13  1  0.78393128  0.68451122  0.50546176  1
  Al  Al14  1  0.28000155  0.99614658  0.85976696  1
  Al  Al15  1  0.76046037  0.84642522  0.80861710  1
  Al  Al16  1  0.30980626  0.16685183  0.10628790  1
  Al  Al17  1  0.62214911  0.87535141  0.08282608  1
  Al  Al18  1  0.34613195  0.12422057  0.61491227  1
  Al  Al19  1  0.42859668  0.00924571  0.28477471  1
  Al  Al20  1  0.54136180  0.00164840  0.80384108  1
  Al  Al21  1  0.18441869  0.68038034  0.01540278  1
  Al  Al22  1  0.70792676  0.61309813  0.08257811  1
  Al  Al23  1  0.98651348  0.91560361  0.44717025  1
  Al  Al24  1  0.19115123  0.85789171  0.21658532  1
  Al  Al25  1  0.37135263  0.37300162  0.42471706  1
  Al  Al26  1  0.11359613  0.37691425  0.98308258  1
  Al  Al27  1  0.60111603  0.37842936  0.88153003  1
  Al  Al28  1  0.98899277  0.04685430  0.88789342  1
  Al  Al29  1  0.80934443  0.08879171  0.62258910  1
  Al  Al30  1  0.91866468  0.79220979  0.20411093  1
  Al  Al31  1  0.63303147  0.49306427  0.31167046  1
  Al  Al32  1  0.51759370  0.86949955  0.50242114  1
  Al  Al33  1  0.31713820  0.29407003  0.81934727  1
  Al  Al34  1  0.40389134  0.76304477  0.77567240  1
  Al  Al35  1  0.43109530  0.70187888  0.24378023  1
  Al  Al36  1  0.18977527  0.43991481  0.23553787  1
  Al  Al37  1  0.05252113  0.25124291  0.71070164  1
  Al  Al38  1  0.90568195  0.10143874  0.19699826  1
  Al  Al39  1  0.01931268  0.47566542  0.48877537  1
  O  O40  1  0.97730604  0.95208062  0.25586160  1
  O  O41  1  0.22183609  0.30807472  0.11373059  1
  O  O42  1  0.60739740  0.01967155  0.98304834  1
  O  O43  1  0.11987382  0.04043827  0.45696862  1
  O  O44  1  0.47222137  0.15178210  0.17124919  1
  O  O45  1  0.02026237  0.30593977  0.53641903  1
  O  O46  1  0.30671272  0.65916235  0.88364250  1
  O  O47  1  0.18946916  0.79058729  0.39022529  1
  O  O48  1  0.69893202  0.26752172  0.97390774  1
  O  O49  1  0.05382091  0.85122965  0.60837510  1
  O  O50  1  0.27107356  0.98412264  0.68044992  1
  O  O51  1  0.22900340  0.23179062  0.67665240  1
  O  O52  1  0.98945707  0.21961028  0.26998344  1
  O  O53  1  0.50376301  0.86937962  0.21359576  1
  O  O54  1  0.51680641  0.64125704  0.72339691  1
  O  O55  1  0.70877918  0.99941730  0.73791405  1
  O  O56  1  0.58127199  0.03830637  0.40748836  1
  O  O57  1  0.94779742  0.39269625  0.03242459  1
  O  O58  1  0.90825650  0.88722462  0.86226555  1
  O  O59  1  0.28547567  0.73176759  0.63572755  1
  O  O60  1  0.22090918  0.31540311  0.37237240  1
  O  O61  1  0.88456846  0.32983308  0.76224460  1
  O  O62  1  0.29977408  0.74675238  0.14198479  1
  O  O63  1  0.95536780  0.10198615  0.71073841  1
  O  O64  1  0.86687453  0.51665322  0.54117530  1
  O  O65  1  0.29916363  0.14608121  0.93184824  1
  O  O66  1  0.08091144  0.67260851  0.84639742  1
  O  O67  1  0.14237976  0.52447345  0.07874976  1
  O  O68  1  0.44075831  0.70736035  0.43567580  1
  O  O69  1  0.19255582  0.42365411  0.82467547  1
  O  O70  1  0.73746675  0.11012232  0.22802920  1
  O  O71  1  0.38353170  0.47715656  0.56119666  1
  O  O72  1  0.56904496  0.61678759  0.19237910  1
  O  O73  1  0.03393119  0.48691997  0.30831155  1
  O  O74  1  0.84311778  0.00517313  0.47441245  1
  O  O75  1  0.89061912  0.10869236  0.01486039  1
  O  O76  1  0.05964858  0.22396951  0.89610650  1
  O  O77  1  0.65133461  0.56771056  0.46905369  1
  O  O78  1  0.31384900  0.53612283  0.31581494  1
  O  O79  1  0.90580301  0.75631077  0.39682828  1
  O  O80  1  0.75884463  0.46214246  0.21141044  1
  O  O81  1  0.72331119  0.23350933  0.55200521  1
  O  O82  1  0.07341350  0.78260273  0.11831502  1
  O  O83  1  0.54066562  0.36044189  0.35532552  1
  O  O84  1  0.77189655  0.71051235  0.69964005  1
  O  O85  1  0.46836384  0.14061720  0.73634775  1
  O  O86  1  0.65628720  0.43982352  0.71368552  1
  O  O87  1  0.75485277  0.86401695  0.19425250  1
  O  O88  1  0.67011916  0.52275653  0.94351662  1
  O  O89  1  0.67183889  0.81751199  0.46009601  1
  O  O90  1  0.51305967  0.87647693  0.67974425  1
  O  O91  1  0.67157993  0.76849632  0.95239646  1
  O  O92  1  0.14185671  0.55686699  0.56922722  1
  O  O93  1  0.44519462  0.36111271  0.89615265  1
  O  O94  1  0.41823385  0.21063186  0.48109220  1
  O  O95  1  0.86750598  0.65104502  0.11836446  1
  O  O96  1  0.41143771  0.89804867  0.89433991  1
  O  O97  1  0.12594167  0.94525666  0.88954729  1
  O  O98  1  0.27222605  0.01488515  0.19647145  1
  O  O99  1  0.37176070  0.95163737  0.45068234  1
