# generated using pymatgen
data_MnGe7N10
_symmetry_space_group_name_H-M   'P 1'
_cell_length_a   7.01396369
_cell_length_b   7.33936699
_cell_length_c   10.30036653
_cell_angle_alpha   90.00000000
_cell_angle_beta   104.32635042
_cell_angle_gamma   90.00000000
_symmetry_Int_Tables_number   1
_chemical_formula_structural   MnGe7N10
_chemical_formula_sum   'Mn2 Ge14 N20'
_cell_volume   513.75334700
_cell_formula_units_Z   2
loop_
 _symmetry_equiv_pos_site_id
 _symmetry_equiv_pos_as_xyz
  1  'x, y, z'
loop_
 _atom_site_type_symbol
 _atom_site_label
 _atom_site_symmetry_multiplicity
 _atom_site_fract_x
 _atom_site_fract_y
 _atom_site_fract_z
 _atom_site_occupancy
  Mn  Mn0  1  0.99007565  0.92176846  0.70233415  1
  Mn  Mn1  1  0.99007565  0.07823154  0.20233415  1
  Ge  Ge2  1  0.54187627  0.97782827  0.82093726  1
  Ge  Ge3  1  0.54187627  0.02217173  0.32093726  1
  Ge  Ge4  1  0.33535730  0.02052158  0.01855986  1
  Ge  Ge5  1  0.33535730  0.97947842  0.51855986  1
  Ge  Ge6  1  0.11287056  0.39460300  0.07274091  1
  Ge  Ge7  1  0.11287056  0.60539700  0.57274091  1
  Ge  Ge8  1  0.66109904  0.35580352  0.99337667  1
  Ge  Ge9  1  0.66109904  0.64419648  0.49337667  1
  Ge  Ge10  1  0.84336763  0.61430344  0.81205604  1
  Ge  Ge11  1  0.84336763  0.38569656  0.31205604  1
  Ge  Ge12  1  0.30391265  0.62243180  0.88068469  1
  Ge  Ge13  1  0.30391265  0.37756820  0.38068469  1
  Ge  Ge14  1  0.49099259  0.36246337  0.68461013  1
  Ge  Ge15  1  0.49099259  0.63753663  0.18461013  1
  N  N16  1  0.76183308  0.85505278  0.80323829  1
  N  N17  1  0.76183308  0.14494722  0.30323829  1
  N  N18  1  0.54328799  0.13398806  0.96600505  1
  N  N19  1  0.54328799  0.86601194  0.46600505  1
  N  N20  1  0.29994098  0.87481782  0.85863815  1
  N  N21  1  0.29994098  0.12518218  0.35863815  1
  N  N22  1  0.12884856  0.14554894  0.04983418  1
  N  N23  1  0.12884856  0.85445106  0.54983418  1
  N  N24  1  0.30010168  0.51545252  0.71919766  1
  N  N25  1  0.30010168  0.48454748  0.21919766  1
  N  N26  1  0.44109485  0.11879227  0.66971439  1
  N  N27  1  0.44109485  0.88120773  0.16971439  1
  N  N28  1  0.88479416  0.37621124  0.13503371  1
  N  N29  1  0.88479416  0.62378876  0.63503371  1
  N  N30  1  0.08059807  0.56967265  0.93789622  1
  N  N31  1  0.08059807  0.43032735  0.43789622  1
  N  N32  1  0.70988783  0.40171003  0.82556940  1
  N  N33  1  0.70988783  0.59828997  0.32556940  1
  N  N34  1  0.51235912  0.55358276  0.01887424  1
  N  N35  1  0.51235912  0.44641724  0.51887424  1
