# generated using pymatgen
data_Cr2O3
_symmetry_space_group_name_H-M   'P 1'
_cell_length_a   10.20665438
_cell_length_b   10.26634002
_cell_length_c   9.42001153
_cell_angle_alpha   81.91965605
_cell_angle_beta   89.20010277
_cell_angle_gamma   91.45847462
_symmetry_Int_Tables_number   1
_chemical_formula_structural   Cr2O3
_chemical_formula_sum   'Cr32 O48'
_cell_volume   976.80601868
_cell_formula_units_Z   16
loop_
 _symmetry_equiv_pos_site_id
 _symmetry_equiv_pos_as_xyz
  1  'x, y, z'
loop_
 _atom_site_type_symbol
 _atom_site_label
 _atom_site_symmetry_multiplicity
 _atom_site_fract_x
 _atom_site_fract_y
 _atom_site_fract_z
 _atom_site_occupancy
  Cr  Cr0  1  0.16007322  0.47017337  0.47684637  1
  Cr  Cr1  1  0.74517630  0.42300260  0.25632885  1
  Cr  Cr2  1  0.48588732  0.48878208  0.86618917  1
  Cr  Cr3  1  0.86011684  0.26964492  0.54467548  1
  Cr  Cr4  1  0.63371704  0.07988748  0.35053469  1
  Cr  Cr5  1  0.03029449  0.75702677  0.85132446  1
  Cr  Cr6  1  0.08507805  0.88489505  0.26454581  1
  Cr  Cr7  1  0.69156351  0.52208763  0.58929459  1
  Cr  Cr8  1  0.24984866  0.03580117  0.85715052  1
  Cr  Cr9  1  0.56689056  0.80567477  0.46393074  1
  Cr  Cr10  1  0.93243632  0.66745618  0.34908865  1
  Cr  Cr11  1  0.28196000  0.65850815  0.00719202  1
  Cr  Cr12  1  0.35277220  0.00987344  0.41411704  1
  Cr  Cr13  1  0.36074195  0.95426831  0.14464913  1
  Cr  Cr14  1  0.85821175  0.20318861  0.12848867  1
  Cr  Cr15  1  0.51197615  0.18046638  0.90272395  1
  Cr  Cr16  1  0.30944373  0.68136633  0.32783472  1
  Cr  Cr17  1  0.31400095  0.23637836  0.55992189  1
  Cr  Cr18  1  0.06721078  0.26082148  0.81123465  1
  Cr  Cr19  1  0.27070807  0.72956647  0.66469784  1
  Cr  Cr20  1  0.96965315  0.52278471  0.73321634  1
  Cr  Cr21  1  0.05098997  0.97978124  0.61899343  1
  Cr  Cr22  1  0.53901847  0.04145185  0.65053632  1
  Cr  Cr23  1  0.71346765  0.73828026  0.86078005  1
  Cr  Cr24  1  0.14168728  0.14348847  0.10393128  1
  Cr  Cr25  1  0.08184469  0.21127955  0.37629176  1
  Cr  Cr26  1  0.82408672  0.80252436  0.55471836  1
  Cr  Cr27  1  0.77294742  0.86682118  0.18690814  1
  Cr  Cr28  1  0.53151546  0.64144050  0.14740446  1
  Cr  Cr29  1  0.36317766  0.33745693  0.18144841  1
  Cr  Cr30  1  0.97547548  0.48594896  0.04918526  1
  Cr  Cr31  1  0.76026636  0.27561326  0.86764813  1
  O  O32  1  0.00051397  0.36491161  0.43954977  1
  O  O33  1  0.93812164  0.80902565  0.17191933  1
  O  O34  1  0.81427188  0.37814710  0.04831668  1
  O  O35  1  0.06389249  0.42910312  0.88624417  1
  O  O36  1  0.58203509  0.45986692  0.20726130  1
  O  O37  1  0.87607106  0.54788056  0.21758470  1
  O  O38  1  0.89260230  0.34398758  0.71584121  1
  O  O39  1  0.43015283  0.33278950  0.97625510  1
  O  O40  1  0.63026621  0.41488894  0.76612185  1
  O  O41  1  0.11659365  0.62359238  0.33082130  1
  O  O42  1  0.29296690  0.60101682  0.52635766  1
  O  O43  1  0.49626268  0.67336081  0.35217129  1
  O  O44  1  0.33936039  0.62006911  0.83491937  1
  O  O45  1  0.19389846  0.86707230  0.76961065  1
  O  O46  1  0.94100183  0.11442379  0.51039540  1
  O  O47  1  0.67399177  0.96176215  0.52512593  1
  O  O48  1  0.03161147  0.29458126  0.17062414  1
  O  O49  1  0.39061915  0.13705212  0.72754324  1
  O  O50  1  0.31500630  0.12959205  0.21482136  1
  O  O51  1  0.11008254  0.64855245  0.02090350  1
  O  O52  1  0.18083611  0.96003109  0.06754709  1
  O  O53  1  0.50971071  0.95076587  0.30102248  1
  O  O54  1  0.42028037  0.87695544  0.57773126  1
  O  O55  1  0.65763841  0.18765903  0.03179713  1
  O  O56  1  0.21861299  0.20526251  0.92308106  1
  O  O57  1  0.92202996  0.17029744  0.95041614  1
  O  O58  1  0.19364282  0.34067889  0.64769633  1
  O  O59  1  0.77680392  0.03256021  0.23699901  1
  O  O60  1  0.20427512  0.08867957  0.50803137  1
  O  O61  1  0.90060716  0.85771019  0.72888146  1
  O  O62  1  0.09190361  0.66729604  0.69962724  1
  O  O63  1  0.42684793  0.01310562  0.95947570  1
  O  O64  1  0.67291771  0.79029052  0.07038837  1
  O  O65  1  0.86956873  0.60452313  0.55876914  1
  O  O66  1  0.74578410  0.76290917  0.36712708  1
  O  O67  1  0.25186107  0.33766444  0.37538515  1
  O  O68  1  0.04616522  0.06053288  0.26881009  1
  O  O69  1  0.65659622  0.70550943  0.64432410  1
  O  O70  1  0.65588835  0.13898028  0.75879257  1
  O  O71  1  0.08027000  0.08038722  0.76720540  1
  O  O72  1  0.37426957  0.77006728  0.11325377  1
  O  O73  1  0.57409531  0.61793645  0.94730802  1
  O  O74  1  0.99604044  0.83475508  0.45308566  1
  O  O75  1  0.72242817  0.38715562  0.46638080  1
  O  O76  1  0.89305353  0.61482139  0.88604550  1
  O  O77  1  0.26325118  0.86702162  0.33635567  1
  O  O78  1  0.48343333  0.14364784  0.46849655  1
  O  O79  1  0.35131915  0.53784571  0.15290771  1
