# generated using pymatgen
data_Si7RuN10
_symmetry_space_group_name_H-M   'P 1'
_cell_length_a   6.71518535
_cell_length_b   6.92972664
_cell_length_c   9.75905176
_cell_angle_alpha   90.00000000
_cell_angle_beta   105.18737180
_cell_angle_gamma   90.00000000
_symmetry_Int_Tables_number   1
_chemical_formula_structural   Si7RuN10
_chemical_formula_sum   'Si14 Ru2 N20'
_cell_volume   438.27072355
_cell_formula_units_Z   2
loop_
 _symmetry_equiv_pos_site_id
 _symmetry_equiv_pos_as_xyz
  1  'x, y, z'
loop_
 _atom_site_type_symbol
 _atom_site_label
 _atom_site_symmetry_multiplicity
 _atom_site_fract_x
 _atom_site_fract_y
 _atom_site_fract_z
 _atom_site_occupancy
  Si  Si0  1  0.53620360  0.98225064  0.81843200  1
  Si  Si1  1  0.53620360  0.01774936  0.31843200  1
  Si  Si2  1  0.34893629  0.01976016  0.01810303  1
  Si  Si3  1  0.34893629  0.98023984  0.51810303  1
  Si  Si4  1  0.11476491  0.39848282  0.07604551  1
  Si  Si5  1  0.11476491  0.60151718  0.57604551  1
  Si  Si6  1  0.65688885  0.36007252  0.98648950  1
  Si  Si7  1  0.65688885  0.63992748  0.48648950  1
  Si  Si8  1  0.84915595  0.62037276  0.81178440  1
  Si  Si9  1  0.84915595  0.37962724  0.31178440  1
  Si  Si10  1  0.29512891  0.61834377  0.88058944  1
  Si  Si11  1  0.29512891  0.38165623  0.38058944  1
  Si  Si12  1  0.48736108  0.36972668  0.68422695  1
  Si  Si13  1  0.48736108  0.63027332  0.18422695  1
  Ru  Ru14  1  0.99697487  0.89781201  0.70744747  1
  Ru  Ru15  1  0.99697487  0.10218799  0.20744747  1
  N  N16  1  0.74087953  0.84249619  0.81281856  1
  N  N17  1  0.74087953  0.15750381  0.31281856  1
  N  N18  1  0.55124362  0.13349923  0.96539252  1
  N  N19  1  0.55124362  0.86650077  0.46539252  1
  N  N20  1  0.30531358  0.87057501  0.85937804  1
  N  N21  1  0.30531358  0.12942499  0.35937804  1
  N  N22  1  0.15875480  0.16053249  0.04716520  1
  N  N23  1  0.15875480  0.83946751  0.54716520  1
  N  N24  1  0.29081626  0.50387741  0.72349578  1
  N  N25  1  0.29081626  0.49612259  0.22349578  1
  N  N26  1  0.44634063  0.12357358  0.66671057  1
  N  N27  1  0.44634063  0.87642642  0.16671057  1
  N  N28  1  0.88154094  0.37495683  0.12990841  1
  N  N29  1  0.88154094  0.62504317  0.62990841  1
  N  N30  1  0.07887583  0.56508311  0.93799904  1
  N  N31  1  0.07887583  0.43491689  0.43799904  1
  N  N32  1  0.70278555  0.41537338  0.82329532  1
  N  N33  1  0.70278555  0.58462662  0.32329532  1
  N  N34  1  0.50033480  0.54168615  0.02001827  1
  N  N35  1  0.50033480  0.45831385  0.52001827  1
