# generated using pymatgen
data_Na3GaN2
_symmetry_space_group_name_H-M   'P 1'
_cell_length_a   8.54344531
_cell_length_b   8.09997026
_cell_length_c   12.67843797
_cell_angle_alpha   89.99999587
_cell_angle_beta   137.90189422
_cell_angle_gamma   118.29724843
_symmetry_Int_Tables_number   1
_chemical_formula_structural   Na3GaN2
_chemical_formula_sum   'Na12 Ga4 N8'
_cell_volume   415.91307328
_cell_formula_units_Z   4
loop_
 _symmetry_equiv_pos_site_id
 _symmetry_equiv_pos_as_xyz
  1  'x, y, z'
loop_
 _atom_site_type_symbol
 _atom_site_label
 _atom_site_symmetry_multiplicity
 _atom_site_fract_x
 _atom_site_fract_y
 _atom_site_fract_z
 _atom_site_occupancy
  Na  Na0  1  0.00000000  0.50000000  0.37528052  1
  Na  Na1  1  -0.00000000  0.00000000  0.87471948  1
  Na  Na2  1  -0.00000000  0.50000000  0.12471948  1
  Na  Na3  1  0.00000000  -0.00000000  0.12528052  1
  Na  Na4  1  0.53251734  0.50000000  0.51625917  1
  Na  Na5  1  0.46748266  0.50000000  0.98374083  1
  Na  Na6  1  0.53251734  0.00000000  0.26625917  1
  Na  Na7  1  0.46748266  -0.00000000  0.73374083  1
  Na  Na8  1  0.46748266  0.96748266  0.98374083  1
  Na  Na9  1  0.53251734  0.03251734  0.51625917  1
  Na  Na10  1  0.46748266  0.46748266  0.73374083  1
  Na  Na11  1  0.53251734  0.53251734  0.26625917  1
  Ga  Ga12  1  -0.00000000  0.50000000  0.61336428  1
  Ga  Ga13  1  0.00000000  -0.00000000  0.63663572  1
  Ga  Ga14  1  0.00000000  0.50000000  0.88663572  1
  Ga  Ga15  1  -0.00000000  0.00000000  0.36336428  1
  N  N16  1  0.43632046  0.71816023  0.82244360  1
  N  N17  1  0.56367954  0.28183977  0.38612314  1
  N  N18  1  0.43632046  0.21816023  0.86387686  1
  N  N19  1  0.56367954  0.78183977  0.42755640  1
  N  N20  1  -0.00000000  0.28183977  0.89571663  1
  N  N21  1  0.00000000  0.71816023  0.89571663  1
  N  N22  1  -0.00000000  0.78183977  0.35428337  1
  N  N23  1  0.00000000  0.21816023  0.35428337  1
