# generated using pymatgen
data_BeO
_symmetry_space_group_name_H-M   'P 1'
_cell_length_a   9.41109990
_cell_length_b   9.84070856
_cell_length_c   8.98206630
_cell_angle_alpha   90.96041214
_cell_angle_beta   91.76899135
_cell_angle_gamma   96.06589304
_symmetry_Int_Tables_number   1
_chemical_formula_structural   BeO
_chemical_formula_sum   'Be50 O50'
_cell_volume   826.62663614
_cell_formula_units_Z   50
loop_
 _symmetry_equiv_pos_site_id
 _symmetry_equiv_pos_as_xyz
  1  'x, y, z'
loop_
 _atom_site_type_symbol
 _atom_site_label
 _atom_site_symmetry_multiplicity
 _atom_site_fract_x
 _atom_site_fract_y
 _atom_site_fract_z
 _atom_site_occupancy
  Be  Be0  1  0.05925108  0.04046688  0.42245633  1
  Be  Be1  1  0.21017549  0.34099103  0.92932318  1
  Be  Be2  1  0.83891453  0.11913635  0.28694864  1
  Be  Be3  1  0.89132606  0.39068103  0.82711897  1
  Be  Be4  1  0.09165592  0.22454575  0.18149741  1
  Be  Be5  1  0.97973786  0.95001010  0.73602371  1
  Be  Be6  1  0.75007207  0.36002730  0.36374758  1
  Be  Be7  1  0.47882956  0.44035762  0.84541631  1
  Be  Be8  1  0.08525869  0.79095283  0.64177391  1
  Be  Be9  1  0.21056137  0.98180934  0.15452048  1
  Be  Be10  1  0.30114314  0.21106631  0.40459036  1
  Be  Be11  1  0.98499313  0.07184663  0.02340173  1
  Be  Be12  1  0.01606697  0.30107791  0.44189262  1
  Be  Be13  1  0.73710008  0.22783139  0.55797853  1
  Be  Be14  1  0.54925404  0.65472334  0.62079836  1
  Be  Be15  1  0.82285079  0.85796214  0.94696824  1
  Be  Be16  1  0.42633175  0.60062599  0.30341298  1
  Be  Be17  1  0.72650738  0.46167590  0.08455032  1
  Be  Be18  1  0.87801692  0.82193917  0.41343032  1
  Be  Be19  1  0.49282222  0.35204541  0.56373571  1
  Be  Be20  1  0.64601575  0.23154760  0.78273504  1
  Be  Be21  1  0.19300402  0.49576621  0.24478347  1
  Be  Be22  1  0.90861199  0.69089897  0.14495224  1
  Be  Be23  1  0.10997683  0.19327771  0.68803492  1
  Be  Be24  1  0.32969373  0.60292491  0.83854284  1
  Be  Be25  1  0.64960952  0.60803682  0.83638397  1
  Be  Be26  1  0.46997419  0.51561807  0.07870787  1
  Be  Be27  1  0.61170058  0.95313976  0.73125855  1
  Be  Be28  1  0.94491851  0.66423358  0.84629544  1
  Be  Be29  1  0.50274703  0.07636331  0.52385603  1
  Be  Be30  1  0.80698535  0.48816578  0.61277961  1
  Be  Be31  1  0.13505856  0.75955377  0.96960400  1
  Be  Be32  1  0.51935766  0.31247410  0.27143615  1
  Be  Be33  1  0.13203316  0.79313395  0.27239333  1
  Be  Be34  1  0.29797885  0.94043186  0.48274495  1
  Be  Be35  1  0.08058317  0.46766383  0.71566393  1
  Be  Be36  1  0.67619412  0.70310705  0.19713543  1
  Be  Be37  1  0.20980207  0.42866769  0.53582152  1
  Be  Be38  1  0.48270247  0.02394498  0.25321309  1
  Be  Be39  1  0.35503648  0.20193668  0.71268258  1
  Be  Be40  1  0.30184517  0.67561704  0.56334468  1
  Be  Be41  1  0.62392253  0.04875601  0.01574043  1
  Be  Be42  1  0.35608814  0.74547507  0.13126259  1
  Be  Be43  1  0.57015806  0.82183899  0.45647755  1
  Be  Be44  1  0.77191841  0.74371192  0.66408636  1
  Be  Be45  1  0.41531802  0.87702805  0.96274477  1
  Be  Be46  1  0.01832835  0.45829377  0.02164561  1
  Be  Be47  1  0.75580873  0.91549133  0.24171532  1
  Be  Be48  1  0.97249059  0.56345443  0.38595975  1
  Be  Be49  1  0.77776447  0.25719721  0.06664291  1
  O  O50  1  0.06709170  0.39314660  0.86777313  1
  O  O51  1  0.60544451  0.49345058  0.96153484  1
  O  O52  1  0.55400780  0.93805504  0.89319844  1
  O  O53  1  0.07694854  0.32921899  0.60640988  1
  O  O54  1  0.91645030  0.80867016  0.58870596  1
  O  O55  1  0.84119679  0.48420226  0.44461000  1
  O  O56  1  0.84676285  0.23048208  0.41844141  1
  O  O57  1  0.14223808  0.10575162  0.08150443  1
  O  O58  1  0.65483894  0.03099832  0.19448765  1
  O  O59  1  0.62773569  0.82422768  0.63118996  1
  O  O60  1  0.77431775  0.58986481  0.17573449  1
  O  O61  1  0.13152947  0.38318492  0.12818452  1
  O  O62  1  0.22844371  0.55791446  0.66726063  1
  O  O63  1  0.68215619  0.33154779  0.19768095  1
  O  O64  1  0.44926836  0.66435146  0.47482260  1
  O  O65  1  0.25989485  0.65509207  0.24585877  1
  O  O66  1  0.78679676  0.72709688  0.84675955  1
  O  O67  1  0.34849894  0.10098998  0.57054875  1
  O  O68  1  0.63156435  0.09660524  0.64578087  1
  O  O69  1  0.04983693  0.05239135  0.61918464  1
  O  O70  1  0.47522509  0.94395653  0.42059852  1
  O  O71  1  0.18361692  0.94821909  0.35046024  1
  O  O72  1  0.68910885  0.58394902  0.64477422  1
  O  O73  1  0.80272221  0.82670170  0.10872002  1
  O  O74  1  0.42010464  0.17056577  0.28843479  1
  O  O75  1  0.12039595  0.19816781  0.36217829  1
  O  O76  1  0.34221532  0.46328212  0.94088173  1
  O  O77  1  0.10617977  0.47425375  0.39245139  1
  O  O78  1  0.06409136  0.79868546  0.81028258  1
  O  O79  1  0.11686064  0.84589831  0.10908901  1
  O  O80  1  0.89886287  0.98122091  0.34854075  1
  O  O81  1  0.90416722  0.99050526  0.88524425  1
  O  O82  1  0.61019771  0.30881745  0.46654532  1
  O  O83  1  0.78080912  0.32100631  0.70439385  1
  O  O84  1  0.38279900  0.92727069  0.12649983  1
  O  O85  1  0.23585645  0.80890026  0.57372560  1
  O  O86  1  0.48307221  0.61185549  0.77245763  1
  O  O87  1  0.66819595  0.18325160  0.94479411  1
  O  O88  1  0.49671862  0.31063485  0.73841740  1
  O  O89  1  0.34111852  0.35443750  0.50015692  1
  O  O90  1  0.50625774  0.67869405  0.15408602  1
  O  O91  1  0.90576952  0.17062765  0.13368179  1
  O  O92  1  0.70098560  0.79376877  0.35499080  1
  O  O93  1  0.43882246  0.44874610  0.23735861  1
  O  O94  1  0.23220462  0.21694298  0.81114423  1
  O  O95  1  0.30795570  0.73797972  0.94423505  1
  O  O96  1  0.01011480  0.62565768  0.01092928  1
  O  O97  1  0.93768817  0.54092615  0.72761277  1
  O  O98  1  0.85155830  0.39661653  0.99698355  1
  O  O99  1  0.98415165  0.71486533  0.32464632  1
