# generated using pymatgen
data_SrHf7N10
_symmetry_space_group_name_H-M   'P 1'
_cell_length_a   6.55426357
_cell_length_b   6.87100906
_cell_length_c   13.45868747
_cell_angle_alpha   90.00000000
_cell_angle_beta   88.19506463
_cell_angle_gamma   90.00000000
_symmetry_Int_Tables_number   1
_chemical_formula_structural   SrHf7N10
_chemical_formula_sum   'Sr2 Hf14 N20'
_cell_volume   605.80325647
_cell_formula_units_Z   2
loop_
 _symmetry_equiv_pos_site_id
 _symmetry_equiv_pos_as_xyz
  1  'x, y, z'
loop_
 _atom_site_type_symbol
 _atom_site_label
 _atom_site_symmetry_multiplicity
 _atom_site_fract_x
 _atom_site_fract_y
 _atom_site_fract_z
 _atom_site_occupancy
  Sr  Sr0  1  0.88919953  0.06181335  0.61698939  1
  Sr  Sr1  1  0.88919953  0.93818665  0.11698939  1
  Hf  Hf2  1  0.59564148  0.04485717  0.82778928  1
  Hf  Hf3  1  0.59564148  0.95514283  0.32778928  1
  Hf  Hf4  1  0.40803362  0.96307943  0.03830987  1
  Hf  Hf5  1  0.40803362  0.03692057  0.53830987  1
  Hf  Hf6  1  0.12312017  0.41498531  0.07850143  1
  Hf  Hf7  1  0.12312017  0.58501469  0.57850143  1
  Hf  Hf8  1  0.69513142  0.40992159  0.98612113  1
  Hf  Hf9  1  0.69513142  0.59007841  0.48612113  1
  Hf  Hf10  1  0.88369184  0.60136123  0.78667991  1
  Hf  Hf11  1  0.88369184  0.39863877  0.28667991  1
  Hf  Hf12  1  0.31013503  0.59584686  0.87977491  1
  Hf  Hf13  1  0.31013503  0.40415314  0.37977491  1
  Hf  Hf14  1  0.50063031  0.41735833  0.68397022  1
  Hf  Hf15  1  0.50063031  0.58264167  0.18397022  1
  N  N16  1  0.83137403  0.88400918  0.78310621  1
  N  N17  1  0.83137403  0.11599082  0.28310621  1
  N  N18  1  0.65438661  0.11876980  0.98435626  1
  N  N19  1  0.65438661  0.88123020  0.48435626  1
  N  N20  1  0.37279196  0.87670240  0.88907459  1
  N  N21  1  0.37279196  0.12329760  0.38907459  1
  N  N22  1  0.17172090  0.13632560  0.06259689  1
  N  N23  1  0.17172090  0.86367440  0.56259689  1
  N  N24  1  0.20030844  0.53681744  0.73277889  1
  N  N25  1  0.20030844  0.46318256  0.23277889  1
  N  N26  1  0.51387732  0.12870594  0.67993055  1
  N  N27  1  0.51387732  0.87129406  0.17993055  1
  N  N28  1  0.79771552  0.48030534  0.13526529  1
  N  N29  1  0.79771552  0.51969466  0.63526529  1
  N  N30  1  0.99504744  0.51883019  0.93551383  1
  N  N31  1  0.99504744  0.48116981  0.43551383  1
  N  N32  1  0.59495648  0.44733048  0.83570831  1
  N  N33  1  0.59495648  0.55266952  0.33570831  1
  N  N34  1  0.40453788  0.55043393  0.03283504  1
  N  N35  1  0.40453788  0.44956607  0.53283504  1
