# generated using pymatgen
data_Ca4CrN4
_symmetry_space_group_name_H-M   'P 1'
_cell_length_a   11.20389129
_cell_length_b   4.93625556
_cell_length_c   10.98023455
_cell_angle_alpha   90.00000000
_cell_angle_beta   90.00000000
_cell_angle_gamma   90.00000000
_symmetry_Int_Tables_number   1
_chemical_formula_structural   Ca4CrN4
_chemical_formula_sum   'Ca16 Cr4 N16'
_cell_volume   607.26484385
_cell_formula_units_Z   4
loop_
 _symmetry_equiv_pos_site_id
 _symmetry_equiv_pos_as_xyz
  1  'x, y, z'
loop_
 _atom_site_type_symbol
 _atom_site_label
 _atom_site_symmetry_multiplicity
 _atom_site_fract_x
 _atom_site_fract_y
 _atom_site_fract_z
 _atom_site_occupancy
  Ca  Ca0  1  0.09215861  0.25000000  0.18577956  1
  Ca  Ca1  1  0.59215861  0.25000000  0.31422044  1
  Ca  Ca2  1  0.90784139  0.75000000  0.81422044  1
  Ca  Ca3  1  0.40784139  0.75000000  0.68577956  1
  Ca  Ca4  1  0.77400307  0.25000000  0.97361539  1
  Ca  Ca5  1  0.27400307  0.25000000  0.52638461  1
  Ca  Ca6  1  0.22599693  0.75000000  0.02638461  1
  Ca  Ca7  1  0.72599693  0.75000000  0.47361539  1
  Ca  Ca8  1  0.44221508  0.25000000  0.88836885  1
  Ca  Ca9  1  0.94221508  0.25000000  0.61163115  1
  Ca  Ca10  1  0.55778492  0.75000000  0.11163115  1
  Ca  Ca11  1  0.05778492  0.75000000  0.38836885  1
  Ca  Ca12  1  0.12754782  0.25000000  0.84095219  1
  Ca  Ca13  1  0.62754782  0.25000000  0.65904781  1
  Ca  Ca14  1  0.87245218  0.75000000  0.15904781  1
  Ca  Ca15  1  0.37245218  0.75000000  0.34095219  1
  Cr  Cr16  1  0.36725168  0.25000000  0.14919805  1
  Cr  Cr17  1  0.86725168  0.25000000  0.35080195  1
  Cr  Cr18  1  0.63274832  0.75000000  0.85080195  1
  Cr  Cr19  1  0.13274832  0.75000000  0.64919805  1
  N  N20  1  0.83366603  0.25000000  0.19719157  1
  N  N21  1  0.33366603  0.25000000  0.30280843  1
  N  N22  1  0.16633397  0.75000000  0.80280843  1
  N  N23  1  0.66633397  0.75000000  0.69719157  1
  N  N24  1  0.92428295  0.25000000  0.82912238  1
  N  N25  1  0.42428295  0.25000000  0.67087762  1
  N  N26  1  0.07571705  0.75000000  0.17087762  1
  N  N27  1  0.57571705  0.75000000  0.32912238  1
  N  N28  1  0.26200310  0.25000000  0.03072047  1
  N  N29  1  0.76200310  0.25000000  0.46927953  1
  N  N30  1  0.73799690  0.75000000  0.96927953  1
  N  N31  1  0.23799690  0.75000000  0.53072047  1
  N  N32  1  0.51328568  0.25000000  0.10612690  1
  N  N33  1  0.01328568  0.25000000  0.39387310  1
  N  N34  1  0.48671432  0.75000000  0.89387310  1
  N  N35  1  0.98671432  0.75000000  0.60612690  1
