# generated using pymatgen
data_Al2O3
_symmetry_space_group_name_H-M   'P 1'
_cell_length_a   10.40062281
_cell_length_b   9.71002359
_cell_length_c   10.75781600
_cell_angle_alpha   91.54746694
_cell_angle_beta   94.30571417
_cell_angle_gamma   89.83129759
_symmetry_Int_Tables_number   1
_chemical_formula_structural   Al2O3
_chemical_formula_sum   'Al40 O60'
_cell_volume   1082.97312127
_cell_formula_units_Z   20
loop_
 _symmetry_equiv_pos_site_id
 _symmetry_equiv_pos_as_xyz
  1  'x, y, z'
loop_
 _atom_site_type_symbol
 _atom_site_label
 _atom_site_symmetry_multiplicity
 _atom_site_fract_x
 _atom_site_fract_y
 _atom_site_fract_z
 _atom_site_occupancy
  Al  Al0  1  0.59543975  0.29869078  0.81707773  1
  Al  Al1  1  0.01387655  0.01639950  0.48651993  1
  Al  Al2  1  0.31539617  0.95140521  0.02002536  1
  Al  Al3  1  0.15215900  0.76649170  0.39042737  1
  Al  Al4  1  0.81736365  0.79553403  0.17027235  1
  Al  Al5  1  0.51585739  0.53653736  0.20754803  1
  Al  Al6  1  0.06146728  0.25974654  0.65648091  1
  Al  Al7  1  0.36139176  0.29804718  0.69436260  1
  Al  Al8  1  0.17401976  0.16786821  0.90180747  1
  Al  Al9  1  0.62262701  0.59031946  0.45084152  1
  Al  Al10  1  0.42099390  0.76065721  0.55824985  1
  Al  Al11  1  0.08955388  0.47179241  0.96174875  1
  Al  Al12  1  0.56892647  0.81906739  0.93540617  1
  Al  Al13  1  0.75618868  0.77968542  0.68745031  1
  Al  Al14  1  0.63200943  0.29645560  0.42707655  1
  Al  Al15  1  0.55233523  0.55876164  0.73924503  1
  Al  Al16  1  0.85149685  0.36132310  0.84934440  1
  Al  Al17  1  0.88650077  0.71808278  0.47466486  1
  Al  Al18  1  0.23312501  0.02777615  0.27763447  1
  Al  Al19  1  0.48058733  0.84157875  0.25718924  1
  Al  Al20  1  0.94456915  0.17945381  0.02385205  1
  Al  Al21  1  0.26468786  0.69744273  0.79801722  1
  Al  Al22  1  0.38963570  0.60543914  0.98904118  1
  Al  Al23  1  0.22979799  0.58141131  0.20182886  1
  Al  Al24  1  0.02252875  0.95184369  0.78219497  1
  Al  Al25  1  0.42777497  0.26596007  0.02981417  1
  Al  Al26  1  0.01855260  0.62807281  0.74065956  1
  Al  Al27  1  0.72303076  0.28893689  0.14640069  1
  Al  Al28  1  0.71227210  0.54901385  0.01872532  1
  Al  Al29  1  0.70060438  0.93849685  0.45956625  1
  Al  Al30  1  0.79290778  0.11764834  0.69097469  1
  Al  Al31  1  0.35723137  0.34134911  0.39998006  1
  Al  Al32  1  0.44177222  0.05219042  0.49531819  1
  Al  Al33  1  0.38105933  0.98154568  0.76220351  1
  Al  Al34  1  0.88958893  0.34491187  0.42101110  1
  Al  Al35  1  0.96083250  0.57957405  0.22052479  1
  Al  Al36  1  0.11577562  0.32755233  0.24999863  1
  Al  Al37  1  0.16972765  0.51738751  0.52790549  1
  Al  Al38  1  0.91497595  0.08714212  0.25022384  1
  Al  Al39  1  0.63341051  0.02026838  0.13268178  1
  O  O40  1  0.85783403  0.63608949  0.08099969  1
  O  O41  1  0.10422638  0.69099188  0.24295038  1
  O  O42  1  0.24385722  0.00676791  0.85257658  1
  O  O43  1  0.03383317  0.18107188  0.17288182  1
  O  O44  1  0.68693477  0.46170221  0.86078667  1
  O  O45  1  0.71077696  0.11415814  0.53911773  1
  O  O46  1  0.37362582  0.66709135  0.17250608  1
  O  O47  1  0.24326753  0.20956545  0.31824237  1
  O  O48  1  0.41081840  0.43954231  0.08465769  1
  O  O49  1  0.05418449  0.06521341  0.64440840  1
  O  O50  1  0.37977438  0.11014643  0.64054946  1
  O  O51  1  0.84549316  0.67660001  0.30959302  1
  O  O52  1  0.96653702  0.41783008  0.29641491  1
  O  O53  1  0.57196859  0.19658383  0.10334248  1
  O  O54  1  0.64322713  0.95105263  0.29723885  1
  O  O55  1  0.20224230  0.27218355  0.75965848  1
  O  O56  1  0.95807318  0.51453579  0.85097594  1
  O  O57  1  0.35948730  0.78767250  0.93727301  1
  O  O58  1  0.38120569  0.95651987  0.35236840  1
  O  O59  1  0.72889425  0.19484808  0.82322539  1
  O  O60  1  0.21401401  0.93513522  0.13945519  1
  O  O61  1  0.05252024  0.66260619  0.47734463  1
  O  O62  1  0.56748936  0.68497968  0.31197668  1
  O  O63  1  0.90371603  0.26743191  0.71016667  1
  O  O64  1  0.66462912  0.46153482  0.15123242  1
  O  O65  1  0.29869157  0.38377842  0.55117058  1
  O  O66  1  0.08748086  0.78656485  0.79755049  1
  O  O67  1  0.05565153  0.29526901  0.94195996  1
  O  O68  1  0.74036340  0.44279663  0.48274876  1
  O  O69  1  0.16895481  0.57512929  0.68848896  1
  O  O70  1  0.53336944  0.90572429  0.54017752  1
  O  O71  1  0.14102157  0.94951638  0.40291275  1
  O  O72  1  0.71436966  0.75133730  0.51251573  1
  O  O73  1  0.29536789  0.69372722  0.45578557  1
  O  O74  1  0.70357301  0.87126308  0.05529105  1
  O  O75  1  0.84091871  0.94118435  0.72890353  1
  O  O76  1  0.44391098  0.26889118  0.86629843  1
  O  O77  1  0.83590736  0.33541190  0.01915704  1
  O  O78  1  0.33914938  0.81749520  0.68810719  1
  O  O79  1  0.56661120  0.65072732  0.01672129  1
  O  O80  1  0.51129322  0.43799978  0.35676563  1
  O  O81  1  0.53028793  0.37165863  0.67902103  1
  O  O82  1  0.21513591  0.58287102  0.94248710  1
  O  O83  1  0.79838041  0.11708148  0.12090058  1
  O  O84  1  0.52232844  0.97314184  0.85968124  1
  O  O85  1  0.95601808  0.16153899  0.40536230  1
  O  O86  1  0.23468636  0.46003628  0.32851852  1
  O  O87  1  0.48310034  0.21044959  0.43628773  1
  O  O88  1  0.47457696  0.93498155  0.11259987  1
  O  O89  1  0.64569114  0.72367799  0.79257714  1
  O  O90  1  0.03560415  0.38181685  0.53521200  1
  O  O91  1  0.92970200  0.91461617  0.22453671  1
  O  O92  1  0.74728503  0.26119950  0.31462778  1
  O  O93  1  0.40977387  0.57232948  0.81704030  1
  O  O94  1  0.52421345  0.61571407  0.58046046  1
  O  O95  1  0.29124157  0.16486349  0.03488155  1
  O  O96  1  0.88271876  0.66743382  0.64606016  1
  O  O97  1  0.01141580  0.05904318  0.91470472  1
  O  O98  1  0.10431055  0.46719389  0.12680982  1
  O  O99  1  0.88240409  0.90573401  0.47615936  1
