# generated using pymatgen
data_Si7CN10
_symmetry_space_group_name_H-M   'P 1'
_cell_length_a   7.10746123
_cell_length_b   6.95885813
_cell_length_c   9.88643713
_cell_angle_alpha   90.00000000
_cell_angle_beta   106.86334381
_cell_angle_gamma   90.00000000
_symmetry_Int_Tables_number   1
_chemical_formula_structural   Si7CN10
_chemical_formula_sum   'Si14 C2 N20'
_cell_volume   467.95483995
_cell_formula_units_Z   2
loop_
 _symmetry_equiv_pos_site_id
 _symmetry_equiv_pos_as_xyz
  1  'x, y, z'
loop_
 _atom_site_type_symbol
 _atom_site_label
 _atom_site_symmetry_multiplicity
 _atom_site_fract_x
 _atom_site_fract_y
 _atom_site_fract_z
 _atom_site_occupancy
  Si  Si0  1  0.55187995  0.97508419  0.82568626  1
  Si  Si1  1  0.55187995  0.02491581  0.32568626  1
  Si  Si2  1  0.40771706  0.97501733  0.02172848  1
  Si  Si3  1  0.40771706  0.02498267  0.52172848  1
  Si  Si4  1  0.05896472  0.48356818  0.09781381  1
  Si  Si5  1  0.05896472  0.51643182  0.59781381  1
  Si  Si6  1  0.63881389  0.36801456  0.00462477  1
  Si  Si7  1  0.63881389  0.63198544  0.50462477  1
  Si  Si8  1  0.82431321  0.63165174  0.81314617  1
  Si  Si9  1  0.82431321  0.36834826  0.31314617  1
  Si  Si10  1  0.28092068  0.60560718  0.89533651  1
  Si  Si11  1  0.28092068  0.39439282  0.39533651  1
  Si  Si12  1  0.46763874  0.38240429  0.70319075  1
  Si  Si13  1  0.46763874  0.61759571  0.20319075  1
  C  C14  1  0.12508964  0.76038032  0.54668981  1
  C  C15  1  0.12508964  0.23961968  0.04668981  1
  N  N16  1  0.73434109  0.84905960  0.80531218  1
  N  N17  1  0.73434109  0.15094040  0.30531218  1
  N  N18  1  0.56409667  0.13020590  0.97312040  1
  N  N19  1  0.56409667  0.86979410  0.47312040  1
  N  N20  1  0.36220799  0.83542846  0.87389252  1
  N  N21  1  0.36220799  0.16457154  0.37389252  1
  N  N22  1  0.18513569  0.09671850  0.01419503  1
  N  N23  1  0.18513569  0.90328150  0.51419503  1
  N  N24  1  0.25304998  0.46474966  0.74386898  1
  N  N25  1  0.25304998  0.53525034  0.24386898  1
  N  N26  1  0.46025278  0.13383737  0.68129438  1
  N  N27  1  0.46025278  0.86616263  0.18129438  1
  N  N28  1  0.84967548  0.42866682  0.14109784  1
  N  N29  1  0.84967548  0.57133318  0.64109784  1
  N  N30  1  0.05669335  0.60124718  0.94215716  1
  N  N31  1  0.05669335  0.39875282  0.44215716  1
  N  N32  1  0.66861216  0.44555518  0.84352805  1
  N  N33  1  0.66861216  0.55444482  0.34352805  1
  N  N34  1  0.45289594  0.50424253  0.04261791  1
  N  N35  1  0.45289594  0.49575747  0.54261791  1
