# generated using pymatgen
data_Al2O3
_symmetry_space_group_name_H-M   'P 1'
_cell_length_a   10.17151985
_cell_length_b   10.35236072
_cell_length_c   10.54910880
_cell_angle_alpha   92.78968603
_cell_angle_beta   94.75695227
_cell_angle_gamma   92.36575367
_symmetry_Int_Tables_number   1
_chemical_formula_structural   Al2O3
_chemical_formula_sum   'Al40 O60'
_cell_volume   1104.52866354
_cell_formula_units_Z   20
loop_
 _symmetry_equiv_pos_site_id
 _symmetry_equiv_pos_as_xyz
  1  'x, y, z'
loop_
 _atom_site_type_symbol
 _atom_site_label
 _atom_site_symmetry_multiplicity
 _atom_site_fract_x
 _atom_site_fract_y
 _atom_site_fract_z
 _atom_site_occupancy
  Al  Al0  1  0.39769118  0.55542164  0.35522260  1
  Al  Al1  1  0.39170806  0.01813031  0.55808458  1
  Al  Al2  1  0.81981585  0.76748278  0.60327936  1
  Al  Al3  1  0.01831473  0.65252971  0.90648491  1
  Al  Al4  1  0.52880016  0.72643371  0.91782159  1
  Al  Al5  1  0.89868901  0.19047118  0.71379634  1
  Al  Al6  1  0.34715847  0.31781985  0.55175651  1
  Al  Al7  1  0.09495906  0.93250691  0.98279499  1
  Al  Al8  1  0.28642043  0.76918662  0.01805662  1
  Al  Al9  1  0.95986623  0.49832101  0.66818308  1
  Al  Al10  1  0.88099285  0.69287833  0.30847254  1
  Al  Al11  1  0.68480329  0.25488144  0.11256250  1
  Al  Al12  1  0.77747207  0.95482711  0.17513934  1
  Al  Al13  1  0.49368761  0.76653017  0.60147741  1
  Al  Al14  1  0.21169065  0.83854037  0.71414203  1
  Al  Al15  1  0.96143946  0.17035549  0.00794206  1
  Al  Al16  1  0.78810122  0.38988284  0.88711798  1
  Al  Al17  1  0.90767648  0.19029763  0.29962264  1
  Al  Al18  1  0.53173309  0.97182448  0.36370578  1
  Al  Al19  1  0.38231079  0.27213757  0.01953692  1
  Al  Al20  1  0.43941090  0.25735675  0.30994265  1
  Al  Al21  1  0.82258486  0.92899978  0.87395565  1
  Al  Al22  1  0.60442296  0.71128424  0.22251498  1
  Al  Al23  1  0.19303313  0.90740045  0.29526160  1
  Al  Al24  1  0.23465044  0.58388186  0.54528217  1
  Al  Al25  1  0.11982298  0.16316463  0.51621523  1
  Al  Al26  1  0.66144242  0.01721052  0.67282975  1
  Al  Al27  1  0.45400736  0.52162600  0.07694680  1
  Al  Al28  1  0.74435746  0.45415777  0.36443096  1
  Al  Al29  1  0.77055941  0.64893222  0.01218165  1
  Al  Al30  1  0.12912291  0.46397086  0.05401479  1
  Al  Al31  1  0.68366292  0.63938290  0.75029966  1
  Al  Al32  1  0.26786245  0.54173890  0.78883814  1
  Al  Al33  1  0.17978699  0.25887526  0.22990333  1
  Al  Al34  1  0.15503078  0.22270143  0.84138120  1
  Al  Al35  1  0.05962782  0.45542245  0.37056349  1
  Al  Al36  1  0.48837625  0.23091552  0.78151408  1
  Al  Al37  1  0.01752571  0.88689230  0.46142355  1
  Al  Al38  1  0.54841794  0.01160927  0.97103224  1
  Al  Al39  1  0.67849324  0.30901876  0.62291084  1
  O  O40  1  0.61282477  0.87936973  0.25212477  1
  O  O41  1  0.46141860  0.14682386  0.93297166  1
  O  O42  1  0.80192207  0.90987053  0.69378573  1
  O  O43  1  0.50986294  0.69076564  0.75404660  1
  O  O44  1  0.06963432  0.31914808  0.95436943  1
  O  O45  1  0.06721213  0.19454683  0.67777124  1
  O  O46  1  0.28585922  0.15573622  0.58179065  1
  O  O47  1  0.65788586  0.28761740  0.79910935  1
  O  O48  1  0.88809742  0.99113349  0.04575123  1
  O  O49  1  0.43202352  0.63870815  0.21467668  1
  O  O50  1  0.50763057  0.09674908  0.67584152  1
  O  O51  1  0.10777571  0.02383413  0.40742488  1
  O  O52  1  0.75759467  0.15235263  0.60824303  1
  O  O53  1  0.76059442  0.41801981  0.52650386  1
  O  O54  1  0.56394876  0.92160655  0.52840075  1
  O  O55  1  0.59985015  0.63464253  0.06183558  1
  O  O56  1  0.80999790  0.76257435  0.16179025  1
  O  O57  1  0.81791376  0.28590005  0.01835731  1
  O  O58  1  0.68725868  0.52619730  0.86919229  1
  O  O59  1  0.33157286  0.20638306  0.16590381  1
  O  O60  1  0.90715637  0.54905263  0.98795015  1
  O  O61  1  0.21241914  0.84821184  0.88323100  1
  O  O62  1  0.15194627  0.64048357  0.03399350  1
  O  O63  1  0.54408680  0.36021674  0.07748512  1
  O  O64  1  0.35781542  0.88247295  0.64548420  1
  O  O65  1  0.23637217  0.67481671  0.69028184  1
  O  O66  1  0.65893676  0.69510143  0.59148036  1
  O  O67  1  0.10053871  0.40745158  0.20597286  1
  O  O68  1  0.28546306  0.44735572  0.63967166  1
  O  O69  1  0.37561729  0.61729845  0.93459327  1
  O  O70  1  0.65476328  0.07852805  0.10627383  1
  O  O71  1  0.30443607  0.42521602  0.06271078  1
  O  O72  1  0.05499574  0.52201659  0.53792794  1
  O  O73  1  0.88198020  0.36394962  0.74474167  1
  O  O74  1  0.71536008  0.76571159  0.90039694  1
  O  O75  1  0.22710484  0.52531424  0.38320437  1
  O  O76  1  0.76699810  0.29906276  0.26886273  1
  O  O77  1  0.39853396  0.65826698  0.49436621  1
  O  O78  1  0.20270801  0.88979221  0.12543995  1
  O  O79  1  0.69593833  0.61227666  0.32033382  1
  O  O80  1  0.06803208  0.78660212  0.33033143  1
  O  O81  1  0.02803189  0.17031669  0.17924187  1
  O  O82  1  0.96955381  0.81664136  0.90673196  1
  O  O83  1  0.50687492  0.33147642  0.61731464  1
  O  O84  1  0.02497751  0.27565354  0.41770945  1
  O  O85  1  0.35250070  0.94474801  0.38039478  1
  O  O86  1  0.84746421  0.03325539  0.31677452  1
  O  O87  1  0.50064228  0.41956700  0.34308918  1
  O  O88  1  0.09078253  0.52994840  0.80731658  1
  O  O89  1  0.07340121  0.88522558  0.62072612  1
  O  O90  1  0.87028489  0.63942558  0.71150350  1
  O  O91  1  0.89666503  0.10304040  0.84853756  1
  O  O92  1  0.91010652  0.52667092  0.32157443  1
  O  O93  1  0.45959067  0.85893561  0.99940046  1
  O  O94  1  0.31985974  0.30042883  0.84142863  1
  O  O95  1  0.13302710  0.09272937  0.94642517  1
  O  O96  1  0.86689346  0.79241509  0.45172455  1
  O  O97  1  0.53573369  0.13939610  0.37148821  1
  O  O98  1  0.28354545  0.27703513  0.38529998  1
  O  O99  1  0.65171080  0.98851568  0.84732460  1
