# generated using pymatgen
data_Al2O3
_symmetry_space_group_name_H-M   'P 1'
_cell_length_a   10.06535237
_cell_length_b   10.08909981
_cell_length_c   10.89402282
_cell_angle_alpha   87.28621540
_cell_angle_beta   91.04183711
_cell_angle_gamma   86.34672331
_symmetry_Int_Tables_number   1
_chemical_formula_structural   Al2O3
_chemical_formula_sum   'Al40 O60'
_cell_volume   1102.55611451
_cell_formula_units_Z   20
loop_
 _symmetry_equiv_pos_site_id
 _symmetry_equiv_pos_as_xyz
  1  'x, y, z'
loop_
 _atom_site_type_symbol
 _atom_site_label
 _atom_site_symmetry_multiplicity
 _atom_site_fract_x
 _atom_site_fract_y
 _atom_site_fract_z
 _atom_site_occupancy
  Al  Al0  1  0.76294743  0.44935537  0.61605956  1
  Al  Al1  1  0.87204203  0.68010483  0.60420397  1
  Al  Al2  1  0.18159950  0.98523505  0.47908958  1
  Al  Al3  1  0.56838532  0.55093966  0.92256778  1
  Al  Al4  1  0.80427891  0.55592793  0.30794099  1
  Al  Al5  1  0.18873341  0.70786826  0.56157754  1
  Al  Al6  1  0.32950428  0.30285441  0.48102253  1
  Al  Al7  1  0.89888624  0.30322923  0.27425545  1
  Al  Al8  1  0.36556351  0.51777704  0.14464249  1
  Al  Al9  1  0.91028435  0.26791708  0.81078317  1
  Al  Al10  1  0.49098420  0.57900836  0.42405043  1
  Al  Al11  1  0.34957116  0.76671928  0.99059890  1
  Al  Al12  1  0.60933759  0.27038563  0.46284984  1
  Al  Al13  1  0.93748665  0.92918153  0.63882890  1
  Al  Al14  1  0.63102023  0.83869885  0.85278807  1
  Al  Al15  1  0.08769493  0.72820295  0.83071231  1
  Al  Al16  1  0.45451675  0.02882189  0.39129880  1
  Al  Al17  1  0.15873497  0.31487605  0.74667848  1
  Al  Al18  1  0.34665711  0.89036666  0.74407577  1
  Al  Al19  1  0.65914676  0.95079871  0.60372805  1
  Al  Al20  1  0.67097706  0.16219395  0.75781570  1
  Al  Al21  1  0.99959197  0.64771072  0.13469962  1
  Al  Al22  1  0.02096358  0.44566554  0.50185549  1
  Al  Al23  1  0.98193990  0.92388592  0.27166290  1
  Al  Al24  1  0.26338976  0.79829040  0.27203036  1
  Al  Al25  1  0.89488303  0.17193114  0.49754361  1
  Al  Al26  1  0.80306018  0.06465233  0.01951245  1
  Al  Al27  1  0.65046507  0.34729019  0.11840715  1
  Al  Al28  1  0.37546675  0.16465362  0.90473564  1
  Al  Al29  1  0.49207021  0.63224956  0.66266355  1
  Al  Al30  1  0.72846942  0.05926058  0.26382536  1
  Al  Al31  1  0.55941652  0.95732941  0.05957102  1
  Al  Al32  1  0.71391946  0.79220948  0.27484995  1
  Al  Al33  1  0.46558327  0.34217446  0.71719844  1
  Al  Al34  1  0.28096828  0.03088539  0.12865523  1
  Al  Al35  1  0.12959201  0.01592819  0.85148235  1
  Al  Al36  1  0.11895821  0.25607285  0.02922746  1
  Al  Al37  1  0.14713301  0.21592638  0.28553608  1
  Al  Al38  1  0.84933165  0.54073793  0.89705120  1
  Al  Al39  1  0.16598503  0.52388457  0.30806507  1
  O  O40  1  0.10384797  0.04280185  0.31816453  1
  O  O41  1  0.23030386  0.35598546  0.34911081  1
  O  O42  1  0.02053984  0.37231660  0.64992019  1
  O  O43  1  0.77769914  0.82140765  0.65016651  1
  O  O44  1  0.76880005  0.32177682  0.50000817  1
  O  O45  1  0.81629390  0.13758404  0.87393259  1
  O  O46  1  0.00624553  0.29535046  0.41547138  1
  O  O47  1  0.02751608  0.04923029  0.54740971  1
  O  O48  1  0.58404469  0.14159067  0.35893900  1
  O  O49  1  0.14141492  0.55963696  0.46665188  1
  O  O50  1  0.24262932  0.29745891  0.90068320  1
  O  O51  1  0.24215269  0.88833735  0.61898724  1
  O  O52  1  0.79262164  0.07062856  0.60689393  1
  O  O53  1  0.97206462  0.37636312  0.91926754  1
  O  O54  1  0.15955731  0.63116981  0.71853320  1
  O  O55  1  0.51825812  0.23317003  0.84409376  1
  O  O56  1  0.54028512  0.91991029  0.49674949  1
  O  O57  1  0.24919249  0.20469973  0.15556227  1
  O  O58  1  0.75541572  0.32344063  0.73617082  1
  O  O59  1  0.19867733  0.81912566  0.41874847  1
  O  O60  1  0.84103655  0.15309681  0.34147517  1
  O  O61  1  0.06122790  0.17004757  0.78024727  1
  O  O62  1  0.98313284  0.65092538  0.95899055  1
  O  O63  1  0.01034973  0.89999475  0.79431749  1
  O  O64  1  0.55500546  0.23194413  0.61638079  1
  O  O65  1  0.61481537  0.92929445  0.21248178  1
  O  O66  1  0.61635204  0.55433732  0.57239281  1
  O  O67  1  0.84812153  0.55928070  0.72533569  1
  O  O68  1  0.07292244  0.77413411  0.22190910  1
  O  O69  1  0.35781293  0.95820215  0.27833882  1
  O  O70  1  0.70659781  0.93563152  0.97509421  1
  O  O71  1  0.35657242  0.62158301  0.28928039  1
  O  O72  1  0.47425479  0.39470772  0.43491407  1
  O  O73  1  0.00425350  0.77791646  0.57004398  1
  O  O74  1  0.86368461  0.55299829  0.48670770  1
  O  O75  1  0.01454917  0.27090883  0.16367802  1
  O  O76  1  0.82025374  0.68649625  0.18600317  1
  O  O77  1  0.37637964  0.64257800  0.54070710  1
  O  O78  1  0.18633118  0.54016603  0.14105010  1
  O  O79  1  0.63812460  0.64715638  0.34073561  1
  O  O80  1  0.27961687  0.84527525  0.11167378  1
  O  O81  1  0.70338424  0.44297535  0.98544784  1
  O  O82  1  0.41934950  0.60257496  0.00639132  1
  O  O83  1  0.69687806  0.17192769  0.11667460  1
  O  O84  1  0.30649623  0.04799708  0.80568573  1
  O  O85  1  0.23682393  0.81612609  0.87049583  1
  O  O86  1  0.49488121  0.84226454  0.96235038  1
  O  O87  1  0.82321692  0.89555070  0.35200591  1
  O  O88  1  0.48742677  0.39122433  0.14694625  1
  O  O89  1  0.75172472  0.40484389  0.24461125  1
  O  O90  1  0.13889264  0.06967893  0.00548019  1
  O  O91  1  0.49140189  0.77945108  0.74160398  1
  O  O92  1  0.49036577  0.50034577  0.78034548  1
  O  O93  1  0.60905747  0.99431837  0.75402771  1
  O  O94  1  0.30181374  0.33157651  0.64562778  1
  O  O95  1  0.98334997  0.51332178  0.26942473  1
  O  O96  1  0.42634397  0.07594730  0.04127258  1
  O  O97  1  0.69276514  0.66795557  0.88731338  1
  O  O98  1  0.31112877  0.12524511  0.45987119  1
  O  O99  1  0.88933288  0.99980853  0.14766431  1
