# generated using pymatgen
data_Al2O3
_symmetry_space_group_name_H-M   'P 1'
_cell_length_a   5.64338937
_cell_length_b   5.64338933
_cell_length_c   13.67466680
_cell_angle_alpha   90.45335915
_cell_angle_beta   89.54664085
_cell_angle_gamma   119.58288373
_symmetry_Int_Tables_number   1
_chemical_formula_structural   Al2O3
_chemical_formula_sum   'Al16 O24'
_cell_volume   378.72093029
_cell_formula_units_Z   8
loop_
 _symmetry_equiv_pos_site_id
 _symmetry_equiv_pos_as_xyz
  1  'x, y, z'
loop_
 _atom_site_type_symbol
 _atom_site_label
 _atom_site_symmetry_multiplicity
 _atom_site_fract_x
 _atom_site_fract_y
 _atom_site_fract_z
 _atom_site_occupancy
  Al  Al0  1  0.46931822  0.72616678  0.20706354  1
  Al  Al1  1  0.79161331  0.40387169  0.12281730  1
  Al  Al2  1  0.95982890  0.72515069  0.33983362  1
  Al  Al3  1  0.14175647  0.05372953  0.16070591  1
  Al  Al4  1  0.96050706  0.23497794  0.33922060  1
  Al  Al5  1  0.47033431  0.23565610  0.33983362  1
  Al  Al6  1  0.13178889  0.06369711  0.54801375  1
  Al  Al7  1  0.46219205  0.73329295  0.45216642  1
  Al  Al8  1  0.63418196  0.07190998  0.66041509  1
  Al  Al9  1  0.63351082  0.56197518  0.66100793  1
  Al  Al10  1  0.12357602  0.56130404  0.66041509  1
  Al  Al11  1  0.80235838  0.39312662  0.87759119  1
  Al  Al12  1  0.12470582  0.07078018  0.79347902  1
  Al  Al13  1  0.29694891  0.39857268  0.00025978  1
  Al  Al14  1  0.45232959  0.74315541  0.83968280  1
  Al  Al15  1  0.79691232  0.89853609  0.00025978  1
  O  O16  1  0.79758345  0.39790155  0.25833118  1
  O  O17  1  0.28257024  0.36989838  0.25435068  1
  O  O18  1  0.82558662  0.91291576  0.25435068  1
  O  O19  1  0.28815486  0.90733114  0.25230634  1
  O  O20  1  0.44822849  0.24379731  0.08692053  1
  O  O21  1  0.97147720  0.22400780  0.08319298  1
  O  O22  1  0.13076245  0.06472355  0.41296876  1
  O  O23  1  0.95168769  0.74725751  0.08692053  1
  O  O24  1  0.46321062  0.73227438  0.58736808  1
  O  O25  1  0.96328499  0.72880746  0.59454498  1
  O  O26  1  0.46667754  0.23220001  0.59454498  1
  O  O27  1  0.96279411  0.23269089  0.59436349  1
  O  O28  1  0.12747341  0.56486872  0.40567986  1
  O  O29  1  0.63108126  0.56440374  0.40587772  1
  O  O30  1  0.79640128  0.39908372  0.74195163  1
  O  O31  1  0.63061628  0.06801159  0.40567986  1
  O  O32  1  0.11837454  0.07711146  0.92142989  1
  O  O33  1  0.64220922  0.04971161  0.91343490  1
  O  O34  1  0.14577439  0.55327578  0.91343490  1
  O  O35  1  0.62246030  0.57302470  0.91723875  1
  O  O36  1  0.76847608  0.88403755  0.74598930  1
  O  O37  1  0.30585641  0.88962959  0.74803984  1
  O  O38  1  0.47555808  0.71992692  0.07901940  1
  O  O39  1  0.31144845  0.42700892  0.74598930  1
