# generated using pymatgen
data_GeI2
_symmetry_space_group_name_H-M   'P 1'
_cell_length_a   4.30463060
_cell_length_b   4.30463066
_cell_length_c   23.37038236
_cell_angle_alpha   90.00000276
_cell_angle_beta   90.00000153
_cell_angle_gamma   120.00000166
_symmetry_Int_Tables_number   1
_chemical_formula_structural   GeI2
_chemical_formula_sum   'Ge3 I6'
_cell_volume   375.03191301
_cell_formula_units_Z   3
loop_
 _symmetry_equiv_pos_site_id
 _symmetry_equiv_pos_as_xyz
  1  'x, y, z'
loop_
 _atom_site_type_symbol
 _atom_site_label
 _atom_site_symmetry_multiplicity
 _atom_site_fract_x
 _atom_site_fract_y
 _atom_site_fract_z
 _atom_site_occupancy
  Ge  Ge0  1  0.00000001  1.00000000  1.00000001  1
  Ge  Ge1  1  0.33333400  0.66666597  0.33214622  1
  Ge  Ge2  1  0.66666598  0.33333402  0.66785383  1
  I  I3  1  0.99999949  0.00000043  0.25752392  1
  I  I4  1  0.00000050  0.99999956  0.74247608  1
  I  I5  1  0.33333381  0.66666626  0.07461557  1
  I  I6  1  0.66666620  0.33333375  0.92538437  1
  I  I7  1  0.33333428  0.66666566  0.59322340  1
  I  I8  1  0.66666572  0.33333434  0.40677660  1
