# generated using pymatgen
data_Mg4SnN4
_symmetry_space_group_name_H-M   'P 1'
_cell_length_a   5.58912023
_cell_length_b   5.63278409
_cell_length_c   8.47409706
_cell_angle_alpha   70.13921385
_cell_angle_beta   82.90909354
_cell_angle_gamma   68.41675434
_symmetry_Int_Tables_number   1
_chemical_formula_structural   Mg4SnN4
_chemical_formula_sum   'Mg8 Sn2 N8'
_cell_volume   233.32247845
_cell_formula_units_Z   2
loop_
 _symmetry_equiv_pos_site_id
 _symmetry_equiv_pos_as_xyz
  1  'x, y, z'
loop_
 _atom_site_type_symbol
 _atom_site_label
 _atom_site_symmetry_multiplicity
 _atom_site_fract_x
 _atom_site_fract_y
 _atom_site_fract_z
 _atom_site_occupancy
  Mg  Mg0  1  0.72352250  0.61468753  0.21775899  1
  Mg  Mg1  1  0.27647750  0.38531247  0.78224101  1
  Mg  Mg2  1  0.75213946  0.24496138  0.99892409  1
  Mg  Mg3  1  0.24786054  0.75503862  0.00107591  1
  Mg  Mg4  1  0.73619300  0.48674905  0.57333431  1
  Mg  Mg5  1  0.26380700  0.51325095  0.42666569  1
  Mg  Mg6  1  0.25975954  0.92912585  0.58022339  1
  Mg  Mg7  1  0.74024046  0.07087415  0.41977661  1
  Sn  Sn8  1  0.72934375  0.83362989  0.78371155  1
  Sn  Sn9  1  0.27065625  0.16637011  0.21628845  1
  N  N10  1  0.99627023  0.69712051  0.60218413  1
  N  N11  1  0.00372977  0.30287949  0.39781587  1
  N  N12  1  0.84642159  0.84142672  0.99963073  1
  N  N13  1  0.15357841  0.15857328  0.00036927  1
  N  N14  1  0.49569572  0.60566734  0.80401610  1
  N  N15  1  0.50430428  0.39433266  0.19598390  1
  N  N16  1  0.49002015  0.80169717  0.38462636  1
  N  N17  1  0.50997985  0.19830283  0.61537364  1
