# generated using pymatgen
data_Al2O3
_symmetry_space_group_name_H-M   'P 1'
_cell_length_a   10.21316288
_cell_length_b   10.41810265
_cell_length_c   10.24584876
_cell_angle_alpha   89.22225755
_cell_angle_beta   92.67886823
_cell_angle_gamma   85.29800718
_symmetry_Int_Tables_number   1
_chemical_formula_structural   Al2O3
_chemical_formula_sum   'Al40 O60'
_cell_volume   1085.15435435
_cell_formula_units_Z   20
loop_
 _symmetry_equiv_pos_site_id
 _symmetry_equiv_pos_as_xyz
  1  'x, y, z'
loop_
 _atom_site_type_symbol
 _atom_site_label
 _atom_site_symmetry_multiplicity
 _atom_site_fract_x
 _atom_site_fract_y
 _atom_site_fract_z
 _atom_site_occupancy
  Al  Al0  1  0.62640233  0.60899378  0.73819111  1
  Al  Al1  1  0.83329888  0.70727293  0.55275058  1
  Al  Al2  1  0.25127018  0.01903159  0.59411387  1
  Al  Al3  1  0.64674419  0.56448201  0.10892817  1
  Al  Al4  1  0.94180085  0.42693096  0.31943119  1
  Al  Al5  1  0.15286156  0.74949509  0.55225254  1
  Al  Al6  1  0.29198412  0.48770954  0.65245670  1
  Al  Al7  1  0.96165130  0.23906373  0.50534165  1
  Al  Al8  1  0.37834467  0.42514473  0.17331927  1
  Al  Al9  1  0.82896519  0.21565102  0.73403846  1
  Al  Al10  1  0.57643206  0.59851303  0.42870671  1
  Al  Al11  1  0.20650180  0.64619253  0.84814287  1
  Al  Al12  1  0.67928532  0.28686255  0.32918142  1
  Al  Al13  1  0.89060604  0.96033772  0.55259857  1
  Al  Al14  1  0.78699989  0.79952726  0.07645182  1
  Al  Al15  1  0.97085800  0.76596244  0.79392368  1
  Al  Al16  1  0.52715706  0.01998253  0.19309188  1
  Al  Al17  1  0.11025592  0.17124276  0.75322534  1
  Al  Al18  1  0.45567509  0.80615511  0.92452800  1
  Al  Al19  1  0.52329852  0.07837383  0.49458197  1
  Al  Al20  1  0.63242614  0.32924476  0.83575817  1
  Al  Al21  1  0.15476267  0.39007013  0.91939456  1
  Al  Al22  1  0.92930430  0.48526090  0.62607959  1
  Al  Al23  1  0.99691184  0.81723704  0.30578715  1
  Al  Al24  1  0.24800635  0.92963603  0.21877774  1
  Al  Al25  1  0.54773293  0.36732643  0.55124934  1
  Al  Al26  1  0.86863418  0.02938565  0.91225365  1
  Al  Al27  1  0.87867191  0.31896811  0.04592134  1
  Al  Al28  1  0.62451562  0.94652647  0.79568437  1
  Al  Al29  1  0.47228140  0.83700845  0.51017307  1
  Al  Al30  1  0.79911233  0.06476054  0.28906800  1
  Al  Al31  1  0.44391511  0.71350879  0.21571542  1
  Al  Al32  1  0.69448334  0.82822502  0.35037748  1
  Al  Al33  1  0.44363596  0.46496584  0.92895607  1
  Al  Al34  1  0.39379850  0.15124516  0.94072770  1
  Al  Al35  1  0.16865297  0.92296390  0.90299477  1
  Al  Al36  1  0.04780219  0.07552068  0.16229417  1
  Al  Al37  1  0.23119639  0.22367029  0.38408720  1
  Al  Al38  1  0.97669303  0.59838540  0.07906678  1
  Al  Al39  1  0.21566744  0.54420345  0.33453595  1
  O  O40  1  0.18421461  0.09267952  0.27842343  1
  O  O41  1  0.29348739  0.36620379  0.30635330  1
  O  O42  1  0.96856580  0.32208402  0.67584373  1
  O  O43  1  0.85228987  0.83938476  0.66926283  1
  O  O44  1  0.59173957  0.21768625  0.46329695  1
  O  O45  1  0.97047348  0.13769250  0.83326292  1
  O  O46  1  0.07082897  0.31163595  0.39119823  1
  O  O47  1  0.12277584  0.14796841  0.57660925  1
  O  O48  1  0.79111258  0.30936458  0.90020079  1
  O  O49  1  0.23316779  0.58836615  0.50606879  1
  O  O50  1  0.47828446  0.98381522  0.90009700  1
  O  O51  1  0.99832281  0.90304815  0.88825100  1
  O  O52  1  0.87564072  0.12076242  0.59362793  1
  O  O53  1  0.81239215  0.40143789  0.18881175  1
  O  O54  1  0.13247342  0.75602491  0.72520204  1
  O  O55  1  0.72489244  0.08848395  0.80382809  1
  O  O56  1  0.64942147  0.14647231  0.22400383  1
  O  O57  1  0.01554561  0.41406302  0.02084145  1
  O  O58  1  0.67809906  0.31757008  0.67410609  1
  O  O59  1  0.03607899  0.87932780  0.49100146  1
  O  O60  1  0.76313161  0.96971471  0.42785596  1
  O  O61  1  0.91086177  0.14790074  0.07252169  1
  O  O62  1  0.04361615  0.64794123  0.92355147  1
  O  O63  1  0.75883474  0.89375411  0.93412273  1
  O  O64  1  0.54948932  0.54534659  0.59456134  1
  O  O65  1  0.41313405  0.13618693  0.11028516  1
  O  O66  1  0.65370951  0.74375808  0.50388497  1
  O  O67  1  0.79744885  0.59319315  0.69435576  1
  O  O68  1  0.17268096  0.80148650  0.29389331  1
  O  O69  1  0.16229237  0.98609253  0.06499630  1
  O  O70  1  0.68547818  0.89879304  0.18505177  1
  O  O71  1  0.33177888  0.58704787  0.21908489  1
  O  O72  1  0.58614011  0.43254194  0.38036713  1
  O  O73  1  0.99633224  0.62842016  0.57292379  1
  O  O74  1  0.86223541  0.43732960  0.46887379  1
  O  O75  1  0.84783174  0.21247991  0.35942277  1
  O  O76  1  0.95078145  0.76372312  0.14037858  1
  O  O77  1  0.43670300  0.71426697  0.39621912  1
  O  O78  1  0.29150088  0.44391327  0.01254517  1
  O  O79  1  0.52359846  0.95348474  0.37305964  1
  O  O80  1  0.40764509  0.88220604  0.17078809  1
  O  O81  1  0.47935888  0.28720181  0.88533964  1
  O  O82  1  0.22067738  0.23136817  0.88083910  1
  O  O83  1  0.60140373  0.49843217  0.86773134  1
  O  O84  1  0.30158833  0.85686334  0.55926138  1
  O  O85  1  0.28349930  0.78486921  0.92583917  1
  O  O86  1  0.36253115  0.57093310  0.79626009  1
  O  O87  1  0.85688184  0.74254439  0.37700726  1
  O  O88  1  0.53234547  0.43823669  0.10074652  1
  O  O89  1  0.62517640  0.65539276  0.26338421  1
  O  O90  1  0.21948824  0.01744998  0.76876803  1
  O  O91  1  0.54140834  0.96413883  0.62646600  1
  O  O92  1  0.15392248  0.47747568  0.76525013  1
  O  O93  1  0.57034668  0.76853440  0.79477966  1
  O  O94  1  0.38383599  0.35611403  0.59804482  1
  O  O95  1  0.04996586  0.54076737  0.25242668  1
  O  O96  1  0.51136708  0.68597338  0.04548158  1
  O  O97  1  0.78984769  0.62558428  0.04612044  1
  O  O98  1  0.34682379  0.11558787  0.48814931  1
  O  O99  1  0.94864996  0.98098041  0.25334702  1
