# generated using pymatgen
data_Ge6Bi3N11
_symmetry_space_group_name_H-M   'P 1'
_cell_length_a   10.65655682
_cell_length_b   10.65655682
_cell_length_c   5.20443910
_cell_angle_alpha   90.00000000
_cell_angle_beta   90.00000000
_cell_angle_gamma   90.00000000
_symmetry_Int_Tables_number   1
_chemical_formula_structural   Ge6Bi3N11
_chemical_formula_sum   'Ge12 Bi6 N22'
_cell_volume   591.02757092
_cell_formula_units_Z   2
loop_
 _symmetry_equiv_pos_site_id
 _symmetry_equiv_pos_as_xyz
  1  'x, y, z'
loop_
 _atom_site_type_symbol
 _atom_site_label
 _atom_site_symmetry_multiplicity
 _atom_site_fract_x
 _atom_site_fract_y
 _atom_site_fract_z
 _atom_site_occupancy
  Ge  Ge0  1  0.41776813  0.29390521  0.53122288  1
  Ge  Ge1  1  0.58223187  0.70609479  0.53122288  1
  Ge  Ge2  1  0.08223187  0.79390521  0.53122288  1
  Ge  Ge3  1  0.91776813  0.20609479  0.53122288  1
  Ge  Ge4  1  0.29390521  0.58223187  0.53122288  1
  Ge  Ge5  1  0.70609479  0.41776813  0.53122288  1
  Ge  Ge6  1  0.79390521  0.91776813  0.53122288  1
  Ge  Ge7  1  0.20609479  0.08223187  0.53122288  1
  Ge  Ge8  1  0.88309564  0.38309564  0.05559780  1
  Ge  Ge9  1  0.11690436  0.61690436  0.05559780  1
  Ge  Ge10  1  0.61690436  0.88309564  0.05559780  1
  Ge  Ge11  1  0.38309564  0.11690436  0.05559780  1
  Bi  Bi12  1  0.31186938  0.81186938  0.95461389  1
  Bi  Bi13  1  0.68813062  0.18813062  0.95461389  1
  Bi  Bi14  1  0.18813062  0.31186938  0.95461389  1
  Bi  Bi15  1  0.81186938  0.68813062  0.95461389  1
  Bi  Bi16  1  0.50000000  0.50000000  0.97024039  1
  Bi  Bi17  1  -0.00000000  -0.00000000  0.97024039  1
  N  N18  1  0.32289932  0.42590702  0.67572229  1
  N  N19  1  0.67710068  0.57409298  0.67572229  1
  N  N20  1  0.17710068  0.92590702  0.67572229  1
  N  N21  1  0.82289932  0.07409298  0.67572229  1
  N  N22  1  0.42590702  0.67710068  0.67572229  1
  N  N23  1  0.57409298  0.32289932  0.67572229  1
  N  N24  1  0.92590702  0.82289932  0.67572229  1
  N  N25  1  0.07409298  0.17710068  0.67572229  1
  N  N26  1  0.42185796  0.27599303  0.18231528  1
  N  N27  1  0.57814204  0.72400697  0.18231528  1
  N  N28  1  0.07814204  0.77599303  0.18231528  1
  N  N29  1  0.92185796  0.22400697  0.18231528  1
  N  N30  1  0.27599303  0.57814204  0.18231528  1
  N  N31  1  0.72400697  0.42185796  0.18231528  1
  N  N32  1  0.77599303  0.92185796  0.18231528  1
  N  N33  1  0.22400697  0.07814204  0.18231528  1
  N  N34  1  0.83189836  0.33189836  0.71745672  1
  N  N35  1  0.16810164  0.66810164  0.71745672  1
  N  N36  1  0.66810164  0.83189836  0.71745672  1
  N  N37  1  0.33189836  0.16810164  0.71745672  1
  N  N38  1  0.50000000  -0.00000000  0.98591898  1
  N  N39  1  -0.00000000  0.50000000  0.98591898  1
