# generated using pymatgen
data_MgO
_symmetry_space_group_name_H-M   'P 1'
_cell_length_a   9.74147744
_cell_length_b   10.46111219
_cell_length_c   8.98087511
_cell_angle_alpha   87.32552216
_cell_angle_beta   92.03941545
_cell_angle_gamma   86.39793833
_symmetry_Int_Tables_number   1
_chemical_formula_structural   MgO
_chemical_formula_sum   'Mg40 O40'
_cell_volume   911.72701579
_cell_formula_units_Z   40
loop_
 _symmetry_equiv_pos_site_id
 _symmetry_equiv_pos_as_xyz
  1  'x, y, z'
loop_
 _atom_site_type_symbol
 _atom_site_label
 _atom_site_symmetry_multiplicity
 _atom_site_fract_x
 _atom_site_fract_y
 _atom_site_fract_z
 _atom_site_occupancy
  Mg  Mg0  1  0.54955361  0.76809354  0.11645884  1
  Mg  Mg1  1  0.24008371  0.61944876  0.68070692  1
  Mg  Mg2  1  0.84902187  0.39036743  0.95841878  1
  Mg  Mg3  1  0.54200451  0.87196774  0.55528850  1
  Mg  Mg4  1  0.35778229  0.38784717  0.54270012  1
  Mg  Mg5  1  0.22658357  0.76870527  0.10354338  1
  Mg  Mg6  1  0.53839568  0.31889856  0.86370233  1
  Mg  Mg7  1  0.54266160  0.60267253  0.70419374  1
  Mg  Mg8  1  0.21765877  0.18053556  0.40845780  1
  Mg  Mg9  1  0.78873411  0.87633402  0.67631376  1
  Mg  Mg10  1  0.24454984  0.35247140  0.83714177  1
  Mg  Mg11  1  0.23944285  0.89163053  0.55520504  1
  Mg  Mg12  1  0.95038481  0.62994042  0.65929969  1
  Mg  Mg13  1  0.05427143  0.94576307  0.25480446  1
  Mg  Mg14  1  0.08820236  0.56632238  0.96809669  1
  Mg  Mg15  1  0.89912627  0.63415277  0.19967415  1
  Mg  Mg16  1  0.03859673  0.22003580  0.13594989  1
  Mg  Mg17  1  0.87720735  0.89303152  0.98211086  1
  Mg  Mg18  1  0.74364519  0.63988023  0.89400166  1
  Mg  Mg19  1  0.36719168  0.96623501  0.26318720  1
  Mg  Mg20  1  0.85163315  0.11500002  0.46303465  1
  Mg  Mg21  1  0.72566494  0.89012039  0.29506397  1
  Mg  Mg22  1  0.57397801  0.03245305  0.94064724  1
  Mg  Mg23  1  0.39354751  0.55547338  0.97556272  1
  Mg  Mg24  1  0.67497239  0.35854287  0.61369021  1
  Mg  Mg25  1  0.69151016  0.24766912  0.14613137  1
  Mg  Mg26  1  0.08514158  0.69370120  0.39658985  1
  Mg  Mg27  1  0.39880549  0.83035783  0.83277163  1
  Mg  Mg28  1  0.35582115  0.27560342  0.12585087  1
  Mg  Mg29  1  0.56060437  0.13288172  0.48210114  1
  Mg  Mg30  1  0.56565573  0.50229394  0.23565446  1
  Mg  Mg31  1  0.24668636  0.49793778  0.25306415  1
  Mg  Mg32  1  0.02994259  0.32976573  0.67805321  1
  Mg  Mg33  1  0.83386576  0.38114440  0.37930512  1
  Mg  Mg34  1  0.36814400  0.11426988  0.70021426  1
  Mg  Mg35  1  0.07642956  0.85813161  0.80145518  1
  Mg  Mg36  1  0.38321569  0.70106671  0.39161227  1
  Mg  Mg37  1  0.72338057  0.63502293  0.43573919  1
  Mg  Mg38  1  0.23674946  0.03975438  0.97023154  1
  Mg  Mg39  1  0.85425259  0.16091602  0.81130252  1
  O  O40  1  0.69571714  0.91467610  0.07440543  1
  O  O41  1  0.53205306  0.37636719  0.08300104  1
  O  O42  1  0.08647408  0.49582316  0.75234266  1
  O  O43  1  0.02376484  0.11258331  0.35244861  1
  O  O44  1  0.39534226  0.74911533  0.61413545  1
  O  O45  1  0.25912371  0.56400451  0.46399597  1
  O  O46  1  0.52767357  0.83543264  0.33507921  1
  O  O47  1  0.69148561  0.71882601  0.62054924  1
  O  O48  1  0.22571295  0.84293477  0.33275388  1
  O  O49  1  0.89470521  0.75179127  0.82755038  1
  O  O50  1  0.10422298  0.63306389  0.18532942  1
  O  O51  1  0.89479236  0.55384811  0.00985363  1
  O  O52  1  0.37490514  0.04365821  0.47297548  1
  O  O53  1  0.23830845  0.42718623  0.03775394  1
  O  O54  1  0.23356165  0.12491826  0.17129776  1
  O  O55  1  0.91615252  0.55376695  0.44578601  1
  O  O56  1  0.23786915  0.96827040  0.75798950  1
  O  O57  1  0.69733148  0.45739865  0.79655972  1
  O  O58  1  0.39336615  0.47456903  0.76090861  1
  O  O59  1  0.37852178  0.18949401  0.91411118  1
  O  O60  1  0.07735716  0.92051480  0.03511126  1
  O  O61  1  0.69486797  0.18689472  0.94012766  1
  O  O62  1  0.38887201  0.90487092  0.04926819  1
  O  O63  1  0.91671935  0.81660029  0.29447664  1
  O  O64  1  0.54090525  0.68179070  0.91129809  1
  O  O65  1  0.68956098  0.21732227  0.35714069  1
  O  O66  1  0.90424103  0.99173351  0.77643125  1
  O  O67  1  0.71415804  0.98004701  0.49270199  1
  O  O68  1  0.39926956  0.62447460  0.18858727  1
  O  O69  1  0.08928023  0.76362320  0.60334980  1
  O  O70  1  0.69689677  0.64203919  0.21569460  1
  O  O71  1  0.21569774  0.26215257  0.62699171  1
  O  O72  1  0.87053121  0.32736488  0.17475412  1
  O  O73  1  0.53270619  0.96403442  0.74780055  1
  O  O74  1  0.61997684  0.48061858  0.45128698  1
  O  O75  1  0.32481352  0.32650063  0.33579064  1
  O  O76  1  0.23514838  0.69753871  0.89598241  1
  O  O77  1  0.51733619  0.25304013  0.63999231  1
  O  O78  1  0.00164733  0.25859397  0.90251231  1
  O  O79  1  0.85990883  0.26812076  0.59521026  1
