# generated using pymatgen
data_BeO
_symmetry_space_group_name_H-M   'P 1'
_cell_length_a   9.18742971
_cell_length_b   10.71667184
_cell_length_c   9.24655686
_cell_angle_alpha   91.77529762
_cell_angle_beta   91.79989412
_cell_angle_gamma   90.00095618
_symmetry_Int_Tables_number   1
_chemical_formula_structural   BeO
_chemical_formula_sum   'Be50 O50'
_cell_volume   909.51729209
_cell_formula_units_Z   50
loop_
 _symmetry_equiv_pos_site_id
 _symmetry_equiv_pos_as_xyz
  1  'x, y, z'
loop_
 _atom_site_type_symbol
 _atom_site_label
 _atom_site_symmetry_multiplicity
 _atom_site_fract_x
 _atom_site_fract_y
 _atom_site_fract_z
 _atom_site_occupancy
  Be  Be0  1  0.15721134  0.16223096  0.81027560  1
  Be  Be1  1  0.05263839  0.58788992  0.08567444  1
  Be  Be2  1  0.25022115  0.07742115  0.05869955  1
  Be  Be3  1  0.95311867  0.26029187  0.45421180  1
  Be  Be4  1  0.82416243  0.55738942  0.87328137  1
  Be  Be5  1  0.99639469  0.01735392  0.94658098  1
  Be  Be6  1  0.93798122  0.09307722  0.20134390  1
  Be  Be7  1  0.37907069  0.88450388  0.03738808  1
  Be  Be8  1  0.01086244  0.69107133  0.67637781  1
  Be  Be9  1  0.20035932  0.89221819  0.76969627  1
  Be  Be10  1  0.44451158  0.04268662  0.28511071  1
  Be  Be11  1  0.75478383  0.34997337  0.14968511  1
  Be  Be12  1  0.21599446  0.44971310  0.25426091  1
  Be  Be13  1  0.95483961  0.05844912  0.67412716  1
  Be  Be14  1  0.66359748  0.48653750  0.39586701  1
  Be  Be15  1  0.54376246  0.60256080  0.88149149  1
  Be  Be16  1  0.06830863  0.66885015  0.37290225  1
  Be  Be17  1  0.88879305  0.28913549  0.88737751  1
  Be  Be18  1  0.99447210  0.85310839  0.32446148  1
  Be  Be19  1  0.45964473  0.16679059  0.51790261  1
  Be  Be20  1  0.15966680  0.25696212  0.00725320  1
  Be  Be21  1  0.30016149  0.50983290  0.01713558  1
  Be  Be22  1  0.80421597  0.72309936  0.48942440  1
  Be  Be23  1  0.64057771  0.02538396  0.79332435  1
  Be  Be24  1  0.24082940  0.73816296  0.61736131  1
  Be  Be25  1  0.63365334  0.36911470  0.81702732  1
  Be  Be26  1  0.44546362  0.63294556  0.16728548  1
  Be  Be27  1  0.37285538  0.33344285  0.44158653  1
  Be  Be28  1  0.86350041  0.49751754  0.59454650  1
  Be  Be29  1  0.61756902  0.01421494  0.44873594  1
  Be  Be30  1  0.08091111  0.43853242  0.81081496  1
  Be  Be31  1  0.23241409  0.59699843  0.82858443  1
  Be  Be32  1  0.50419294  0.85609829  0.55710713  1
  Be  Be33  1  0.96527037  0.75918943  0.01238064  1
  Be  Be34  1  0.26180886  0.90086359  0.45821625  1
  Be  Be35  1  0.35177941  0.35635980  0.71516615  1
  Be  Be36  1  0.76600785  0.59150732  0.15487329  1
  Be  Be37  1  0.00210636  0.30198300  0.16361264  1
  Be  Be38  1  0.80911308  0.93572829  0.05201493  1
  Be  Be39  1  0.76371666  0.17121121  0.64660733  1
  Be  Be40  1  0.16566127  0.48523994  0.54037005  1
  Be  Be41  1  0.45601035  0.19827689  0.89833613  1
  Be  Be42  1  0.22885388  0.77943886  0.18690772  1
  Be  Be43  1  0.73672289  0.92473720  0.28434251  1
  Be  Be44  1  0.75548220  0.88351925  0.64955161  1
  Be  Be45  1  0.47230403  0.81504761  0.78819061  1
  Be  Be46  1  0.61137453  0.75588370  0.06429877  1
  Be  Be47  1  0.65935511  0.12932466  0.07835783  1
  Be  Be48  1  0.93264384  0.47918018  0.34112811  1
  Be  Be49  1  0.53942797  0.27824231  0.28861130  1
  O  O50  1  0.28811859  0.17319599  0.93092847  1
  O  O51  1  0.38471859  0.56866816  0.89830481  1
  O  O52  1  0.57338469  0.09826203  0.92453256  1
  O  O53  1  0.35544725  0.25824595  0.59288512  1
  O  O54  1  0.95616095  0.41084053  0.48886060  1
  O  O55  1  0.77988188  0.47048203  0.25744258  1
  O  O56  1  0.18966937  0.88564001  0.60039485  1
  O  O57  1  0.80277045  0.02454864  0.72915023  1
  O  O58  1  0.62116903  0.03746239  0.28132621  1
  O  O59  1  0.87132412  0.77152288  0.64449452  1
  O  O60  1  0.91160432  0.72991551  0.35617237  1
  O  O61  1  0.16366668  0.33213993  0.14531689  1
  O  O62  1  0.21654631  0.45524241  0.70494871  1
  O  O63  1  0.62366511  0.26442725  0.14833677  1
  O  O64  1  0.41348839  0.74561196  0.62338731  1
  O  O65  1  0.05926298  0.54133450  0.25646121  1
  O  O66  1  0.57540964  0.74318353  0.90129004  1
  O  O67  1  0.41851776  0.96017762  0.44663858  1
  O  O68  1  0.76275770  0.28113800  0.77347649  1
  O  O69  1  0.15362017  0.72007219  0.77439645  1
  O  O70  1  0.58307064  0.90751831  0.70952566  1
  O  O71  1  0.16844386  0.81934481  0.33638054  1
  O  O72  1  0.66911933  0.50706553  0.85554558  1
  O  O73  1  0.81932504  0.08089367  0.06181312  1
  O  O74  1  0.41836869  0.19110703  0.34559846  1
  O  O75  1  0.08419870  0.09902198  0.07111883  1
  O  O76  1  0.13715407  0.51592462  0.95494513  1
  O  O77  1  0.11766196  0.63264494  0.53107861  1
  O  O78  1  0.93590200  0.52655960  0.74938940  1
  O  O79  1  0.10583372  0.73016261  0.09024101  1
  O  O80  1  0.94346042  0.22883011  0.28916817  1
  O  O81  1  0.88123563  0.33989899  0.04452809  1
  O  O82  1  0.61802302  0.13055855  0.55937045  1
  O  O83  1  0.92841264  0.16675306  0.57280922  1
  O  O84  1  0.35341422  0.00029080  0.14246164  1
  O  O85  1  0.33898594  0.89221411  0.87469319  1
  O  O86  1  0.74619528  0.57504297  0.50894696  1
  O  O87  1  0.34019978  0.52323743  0.17579464  1
  O  O88  1  0.47409512  0.32587030  0.83161355  1
  O  O89  1  0.24555092  0.42153012  0.41618484  1
  O  O90  1  0.71107888  0.85318342  0.13370382  1
  O  O91  1  0.87683094  0.62313611  0.02523354  1
  O  O92  1  0.68915883  0.87220816  0.46864612  1
  O  O93  1  0.54260130  0.39081145  0.39933438  1
  O  O94  1  0.08235763  0.03428859  0.79117133  1
  O  O95  1  0.38939064  0.76854784  0.14016225  1
  O  O96  1  0.92980080  0.88536443  0.95720232  1
  O  O97  1  0.06218188  0.28290730  0.85115490  1
  O  O98  1  0.60965681  0.62990717  0.15011393  1
  O  O99  1  0.91309712  0.96954922  0.28774047  1
