# generated using pymatgen
data_SiPb7N6
_symmetry_space_group_name_H-M   'P 1'
_cell_length_a   12.70494681
_cell_length_b   7.32434348
_cell_length_c   12.58207535
_cell_angle_alpha   90.00000000
_cell_angle_beta   90.00000000
_cell_angle_gamma   90.00000000
_symmetry_Int_Tables_number   1
_chemical_formula_structural   SiPb7N6
_chemical_formula_sum   'Si4 Pb28 N24'
_cell_volume   1170.82998320
_cell_formula_units_Z   4
loop_
 _symmetry_equiv_pos_site_id
 _symmetry_equiv_pos_as_xyz
  1  'x, y, z'
loop_
 _atom_site_type_symbol
 _atom_site_label
 _atom_site_symmetry_multiplicity
 _atom_site_fract_x
 _atom_site_fract_y
 _atom_site_fract_z
 _atom_site_occupancy
  Si  Si0  1  0.00000000  0.84285808  0.75000000  1
  Si  Si1  1  0.50000000  0.65714192  0.25000000  1
  Si  Si2  1  -0.00000000  0.15714192  0.25000000  1
  Si  Si3  1  0.50000000  0.34285808  0.75000000  1
  Pb  Pb4  1  0.00846664  0.76723453  0.02122241  1
  Pb  Pb5  1  0.49153336  0.73276547  0.52122241  1
  Pb  Pb6  1  0.50846664  0.73276547  0.97877759  1
  Pb  Pb7  1  0.99153336  0.76723453  0.47877759  1
  Pb  Pb8  1  0.99153336  0.23276547  0.97877759  1
  Pb  Pb9  1  0.50846664  0.26723453  0.47877759  1
  Pb  Pb10  1  0.49153336  0.26723453  0.02122241  1
  Pb  Pb11  1  0.00846664  0.23276547  0.52122241  1
  Pb  Pb12  1  0.21285672  0.82563689  0.63194772  1
  Pb  Pb13  1  0.28714328  0.67436311  0.13194772  1
  Pb  Pb14  1  0.71285672  0.67436311  0.36805228  1
  Pb  Pb15  1  0.78714328  0.82563689  0.86805228  1
  Pb  Pb16  1  0.78714328  0.17436311  0.36805228  1
  Pb  Pb17  1  0.71285672  0.32563689  0.86805228  1
  Pb  Pb18  1  0.28714328  0.32563689  0.63194772  1
  Pb  Pb19  1  0.21285672  0.17436311  0.13194772  1
  Pb  Pb20  1  0.25523759  0.54506376  0.86526530  1
  Pb  Pb21  1  0.24476241  0.95493624  0.36526530  1
  Pb  Pb22  1  0.75523759  0.95493624  0.13473470  1
  Pb  Pb23  1  0.74476241  0.54506376  0.63473470  1
  Pb  Pb24  1  0.74476241  0.45493624  0.13473470  1
  Pb  Pb25  1  0.75523759  0.04506376  0.63473470  1
  Pb  Pb26  1  0.24476241  0.04506376  0.86526530  1
  Pb  Pb27  1  0.25523759  0.45493624  0.36526530  1
  Pb  Pb28  1  -0.00000000  0.43769296  0.75000000  1
  Pb  Pb29  1  0.50000000  0.06230704  0.25000000  1
  Pb  Pb30  1  -0.00000000  0.56230704  0.25000000  1
  Pb  Pb31  1  0.50000000  0.93769296  0.75000000  1
  N  N32  1  0.10738112  0.68684848  0.76855772  1
  N  N33  1  0.39261888  0.81315152  0.26855772  1
  N  N34  1  0.60738112  0.81315152  0.23144228  1
  N  N35  1  0.89261888  0.68684848  0.73144228  1
  N  N36  1  0.89261888  0.31315152  0.23144228  1
  N  N37  1  0.60738112  0.18684848  0.73144228  1
  N  N38  1  0.39261888  0.18684848  0.76855772  1
  N  N39  1  0.10738112  0.31315152  0.26855772  1
  N  N40  1  0.17478469  0.70618549  0.46600361  1
  N  N41  1  0.32521531  0.79381451  0.96600361  1
  N  N42  1  0.67478469  0.79381451  0.53399639  1
  N  N43  1  0.82521531  0.70618549  0.03399639  1
  N  N44  1  0.82521531  0.29381451  0.53399639  1
  N  N45  1  0.67478469  0.20618549  0.03399639  1
  N  N46  1  0.32521531  0.20618549  0.46600361  1
  N  N47  1  0.17478469  0.29381451  0.96600361  1
  N  N48  1  0.46836966  0.45627858  0.63001282  1
  N  N49  1  0.03163034  0.04372142  0.13001282  1
  N  N50  1  0.96836966  0.04372142  0.36998718  1
  N  N51  1  0.53163034  0.45627858  0.86998718  1
  N  N52  1  0.53163034  0.54372142  0.36998718  1
  N  N53  1  0.96836966  0.95627858  0.86998718  1
  N  N54  1  0.03163034  0.95627858  0.63001282  1
  N  N55  1  0.46836966  0.54372142  0.13001282  1
