# generated using pymatgen
data_Ca3(SbN2)2
_symmetry_space_group_name_H-M   'P 1'
_cell_length_a   8.14418670
_cell_length_b   12.15595578
_cell_length_c   5.19565451
_cell_angle_alpha   89.99999818
_cell_angle_beta   96.56266657
_cell_angle_gamma   138.27057611
_symmetry_Int_Tables_number   1
_chemical_formula_structural   Ca3(SbN2)2
_chemical_formula_sum   'Ca6 Sb4 N8'
_cell_volume   337.28803656
_cell_formula_units_Z   2
loop_
 _symmetry_equiv_pos_site_id
 _symmetry_equiv_pos_as_xyz
  1  'x, y, z'
loop_
 _atom_site_type_symbol
 _atom_site_label
 _atom_site_symmetry_multiplicity
 _atom_site_fract_x
 _atom_site_fract_y
 _atom_site_fract_z
 _atom_site_occupancy
  Ca  Ca0  1  0.21482943  0.01234448  0.06023868  1
  Ca  Ca1  1  0.78517057  0.79751505  0.43976132  1
  Ca  Ca2  1  0.78517057  0.98765552  0.93976132  1
  Ca  Ca3  1  0.21482943  0.20248495  0.56023868  1
  Ca  Ca4  1  0.00000000  0.67222358  0.75000000  1
  Ca  Ca5  1  -0.00000000  0.32777642  0.25000000  1
  Sb  Sb6  1  0.61346840  0.20930198  0.66025034  1
  Sb  Sb7  1  0.38653160  0.59583258  0.83974966  1
  Sb  Sb8  1  0.38653160  0.79069802  0.33974966  1
  Sb  Sb9  1  0.61346840  0.40416742  0.16025034  1
  N  N10  1  0.22689508  0.00715865  0.57490853  1
  N  N11  1  0.77310492  0.78026357  0.92509147  1
  N  N12  1  0.77310492  0.99284135  0.42509147  1
  N  N13  1  0.22689508  0.21973643  0.07490853  1
  N  N14  1  0.65875218  0.25905320  0.06477488  1
  N  N15  1  0.34124782  0.60030102  0.43522512  1
  N  N16  1  0.34124782  0.74094680  0.93522512  1
  N  N17  1  0.65875218  0.39969898  0.56477488  1
