# generated using pymatgen
data_Al2O3
_symmetry_space_group_name_H-M   'P 1'
_cell_length_a   9.97746151
_cell_length_b   10.42601482
_cell_length_c   10.44350972
_cell_angle_alpha   91.71266435
_cell_angle_beta   89.44562317
_cell_angle_gamma   88.21826613
_symmetry_Int_Tables_number   1
_chemical_formula_structural   Al2O3
_chemical_formula_sum   'Al40 O60'
_cell_volume   1085.31631756
_cell_formula_units_Z   20
loop_
 _symmetry_equiv_pos_site_id
 _symmetry_equiv_pos_as_xyz
  1  'x, y, z'
loop_
 _atom_site_type_symbol
 _atom_site_label
 _atom_site_symmetry_multiplicity
 _atom_site_fract_x
 _atom_site_fract_y
 _atom_site_fract_z
 _atom_site_occupancy
  Al  Al0  1  0.77528685  0.41462877  0.66174035  1
  Al  Al1  1  0.67911937  0.65878830  0.62076241  1
  Al  Al2  1  0.97575680  0.65495690  0.76173446  1
  Al  Al3  1  0.70031441  0.43071780  0.00155902  1
  Al  Al4  1  0.79588781  0.78634840  0.39345252  1
  Al  Al5  1  0.10925982  0.42329453  0.67524727  1
  Al  Al6  1  0.36408135  0.42037060  0.32383447  1
  Al  Al7  1  0.90808567  0.18804771  0.00520490  1
  Al  Al8  1  0.39986123  0.62211466  0.08498748  1
  Al  Al9  1  0.68759966  0.91623828  0.78204286  1
  Al  Al10  1  0.39712032  0.71594572  0.34339087  1
  Al  Al11  1  0.43190438  0.03873013  0.78377681  1
  Al  Al12  1  0.66082074  0.22358164  0.21060192  1
  Al  Al13  1  0.96354816  0.92064099  0.61347846  1
  Al  Al14  1  0.51232736  0.67896438  0.82098019  1
  Al  Al15  1  0.30238002  0.88276598  0.97473184  1
  Al  Al16  1  0.18019072  0.10643755  0.58060283  1
  Al  Al17  1  0.20470871  0.18923141  0.98615668  1
  Al  Al18  1  0.23978744  0.83849359  0.71907038  1
  Al  Al19  1  0.54781897  0.91739865  0.50675529  1
  Al  Al20  1  0.59781028  0.23393433  0.47945638  1
  Al  Al21  1  0.12138355  0.70645666  0.17785749  1
  Al  Al22  1  0.92821397  0.53429391  0.48089518  1
  Al  Al23  1  0.09311795  0.97326574  0.32899665  1
  Al  Al24  1  0.40906982  0.98472194  0.23102199  1
  Al  Al25  1  0.95759641  0.20130858  0.75173622  1
  Al  Al26  1  0.87213577  0.95517549  0.16450336  1
  Al  Al27  1  0.74805604  0.48497277  0.31128229  1
  Al  Al28  1  0.63998762  0.25533599  0.80786561  1
  Al  Al29  1  0.37219070  0.57403702  0.58738840  1
  Al  Al30  1  0.78257703  0.05125418  0.39479406  1
  Al  Al31  1  0.60900735  0.99819393  0.05779092  1
  Al  Al32  1  0.68289765  0.71331756  0.13584724  1
  Al  Al33  1  0.33276379  0.31641370  0.75751657  1
  Al  Al34  1  0.20112110  0.19570537  0.25896126  1
  Al  Al35  1  0.97701161  0.88283721  0.90719232  1
  Al  Al36  1  0.40962331  0.33533315  0.04592634  1
  Al  Al37  1  0.04805371  0.40332588  0.21020081  1
  Al  Al38  1  0.94135235  0.54289944  0.98536661  1
  Al  Al39  1  0.12242100  0.72070258  0.49056501  1
  O  O40  1  0.23096380  0.00980302  0.21832139  1
  O  O41  1  0.29733453  0.46738052  0.69018890  1
  O  O42  1  0.84414700  0.59249245  0.66361181  1
  O  O43  1  0.66602124  0.74800745  0.77891757  1
  O  O44  1  0.94294486  0.34344854  0.65440832  1
  O  O45  1  0.80540082  0.18238800  0.83998635  1
  O  O46  1  0.92358530  0.44262693  0.32871628  1
  O  O47  1  0.01650736  0.07888277  0.64376289  1
  O  O48  1  0.46401229  0.30507046  0.39830838  1
  O  O49  1  0.19503613  0.37063397  0.30915055  1
  O  O50  1  0.31181492  0.05492647  0.92113641  1
  O  O51  1  0.09991567  0.89678213  0.47954326  1
  O  O52  1  0.60399521  0.06506913  0.46379085  1
  O  O53  1  0.04395376  0.50946962  0.82286049  1
  O  O54  1  0.05845695  0.77278729  0.66859783  1
  O  O55  1  0.67067431  0.28129912  0.62645320  1
  O  O56  1  0.43027718  0.88364541  0.37574202  1
  O  O57  1  0.32198615  0.21748727  0.12888575  1
  O  O58  1  0.70222723  0.42320689  0.82008446  1
  O  O59  1  0.09204361  0.53552795  0.54741033  1
  O  O60  1  0.54202428  0.09406513  0.19944908  1
  O  O61  1  0.05428957  0.19775820  0.89316746  1
  O  O62  1  0.95818566  0.00649902  0.02220889  1
  O  O63  1  0.86699793  0.91530891  0.77156423  1
  O  O64  1  0.46964013  0.20702936  0.75205135  1
  O  O65  1  0.74485010  0.91183373  0.28915857  1
  O  O66  1  0.64276676  0.76448462  0.49567344  1
  O  O67  1  0.74019779  0.49665519  0.49098457  1
  O  O68  1  0.21461004  0.69937773  0.32653437  1
  O  O69  1  0.44900703  0.90681851  0.07947192  1
  O  O70  1  0.72859238  0.86191156  0.06190829  1
  O  O71  1  0.66285296  0.39607030  0.19152519  1
  O  O72  1  0.73695937  0.22329824  0.36467339  1
  O  O73  1  0.95015338  0.71365551  0.92217253  1
  O  O74  1  0.94418513  0.69760425  0.44034567  1
  O  O75  1  0.06822696  0.24020415  0.13729413  1
  O  O76  1  0.01371706  0.83948528  0.20979980  1
  O  O77  1  0.40955360  0.56047203  0.41944632  1
  O  O78  1  0.28994563  0.33027335  0.92113708  1
  O  O79  1  0.75171500  0.65364464  0.28060041  1
  O  O80  1  0.38469523  0.80401092  0.82760202  1
  O  O81  1  0.75958971  0.58936279  0.03302854  1
  O  O82  1  0.49469844  0.58252565  0.95086151  1
  O  O83  1  0.76317437  0.12797986  0.10193021  1
  O  O84  1  0.29094758  0.99701695  0.66423608  1
  O  O85  1  0.25873475  0.73112891  0.06870352  1
  O  O86  1  0.50586398  0.69122626  0.20212913  1
  O  O87  1  0.82700690  0.93035767  0.51179561  1
  O  O88  1  0.38200873  0.46904113  0.15667269  1
  O  O89  1  0.87895883  0.37423086  0.02107702  1
  O  O90  1  0.15109115  0.87346480  0.87197844  1
  O  O91  1  0.28802713  0.72632411  0.58294849  1
  O  O92  1  0.57342720  0.30369562  0.98145971  1
  O  O93  1  0.55083324  0.94969689  0.67306234  1
  O  O94  1  0.19421994  0.25927176  0.66755840  1
  O  O95  1  0.05500558  0.55283412  0.12348616  1
  O  O96  1  0.59216041  0.02185859  0.89020102  1
  O  O97  1  0.52419945  0.59146916  0.66799862  1
  O  O98  1  0.17652825  0.12911879  0.41523969  1
  O  O99  1  0.93898525  0.05763766  0.30098732  1
