# generated using pymatgen
data_YGa2N3
_symmetry_space_group_name_H-M   'P 1'
_cell_length_a   5.96970649
_cell_length_b   5.93442929
_cell_length_c   5.29934824
_cell_angle_alpha   90.00000000
_cell_angle_beta   90.00000000
_cell_angle_gamma   119.80471458
_symmetry_Int_Tables_number   1
_chemical_formula_structural   YGa2N3
_chemical_formula_sum   'Y2 Ga4 N6'
_cell_volume   162.90570202
_cell_formula_units_Z   2
loop_
 _symmetry_equiv_pos_site_id
 _symmetry_equiv_pos_as_xyz
  1  'x, y, z'
loop_
 _atom_site_type_symbol
 _atom_site_label
 _atom_site_symmetry_multiplicity
 _atom_site_fract_x
 _atom_site_fract_y
 _atom_site_fract_z
 _atom_site_occupancy
  Y  Y0  1  0.00000000  0.68828035  0.47206001  1
  Y  Y1  1  0.00000000  0.31171965  0.97206001  1
  Ga  Ga2  1  0.34743661  0.33986894  0.48991674  1
  Ga  Ga3  1  0.65256339  0.99243132  0.48991674  1
  Ga  Ga4  1  0.65256339  0.66013106  0.98991674  1
  Ga  Ga5  1  0.34743661  0.00756868  0.98991674  1
  N  N6  1  0.37627800  0.33019659  0.85883202  1
  N  N7  1  0.62372200  0.95391859  0.85883202  1
  N  N8  1  0.62372200  0.66980341  0.35883202  1
  N  N9  1  0.37627800  0.04608141  0.35883202  1
  N  N10  1  0.00000000  0.69551649  0.91844348  1
  N  N11  1  0.00000000  0.30448351  0.41844348  1
