# generated using pymatgen
data_SnMo5O8
_symmetry_space_group_name_H-M   'P 1'
_cell_length_a   8.39900368
_cell_length_b   9.96893214
_cell_length_c   10.69405142
_cell_angle_alpha   90.00000000
_cell_angle_beta   110.41294885
_cell_angle_gamma   90.00000000
_symmetry_Int_Tables_number   1
_chemical_formula_structural   SnMo5O8
_chemical_formula_sum   'Sn4 Mo20 O32'
_cell_volume   839.17480608
_cell_formula_units_Z   4
loop_
 _symmetry_equiv_pos_site_id
 _symmetry_equiv_pos_as_xyz
  1  'x, y, z'
loop_
 _atom_site_type_symbol
 _atom_site_label
 _atom_site_symmetry_multiplicity
 _atom_site_fract_x
 _atom_site_fract_y
 _atom_site_fract_z
 _atom_site_occupancy
  O  O0  1  0.40883029  0.49828899  0.86192730  1
  O  O1  1  0.59116869  0.99828857  0.63807310  1
  O  O2  1  0.59116967  0.50171079  0.13807279  1
  O  O3  1  0.40883126  0.00171121  0.36192699  1
  O  O4  1  0.61078651  0.75643675  0.31117949  1
  O  O5  1  0.38921303  0.25643633  0.18881993  1
  O  O6  1  0.38921345  0.24356303  0.68882060  1
  O  O7  1  0.61078693  0.74356345  0.81118016  1
  O  O8  1  0.21388478  0.75026912  0.70805379  1
  O  O9  1  0.78611420  0.25026870  0.79194561  1
  O  O10  1  0.78611518  0.24973172  0.29194629  1
  O  O11  1  0.21388576  0.74973108  0.20805448  1
  O  O12  1  0.80750775  0.75038399  0.60856806  1
  O  O13  1  0.19249264  0.25038463  0.89143170  1
  O  O14  1  0.19249221  0.24961579  0.39143104  1
  O  O15  1  0.80750732  0.74961515  0.10856838  1
  O  O16  1  0.39478387  0.76616990  0.51210205  1
  O  O17  1  0.60521651  0.26616948  0.98789771  1
  O  O18  1  0.60521749  0.23382988  0.48789740  1
  O  O19  1  0.39478345  0.73383030  0.01210238  1
  O  O20  1  0.96904766  0.50488753  0.75288164  1
  O  O21  1  0.03095273  0.00488689  0.74711912  1
  O  O22  1  0.03095230  0.49511225  0.24711845  1
  O  O23  1  0.96904723  0.99511289  0.25288097  1
  O  O24  1  0.40346235  0.00590355  0.85652583  1
  O  O25  1  0.59653803  0.50590397  0.64347393  1
  O  O26  1  0.59653761  0.99409623  0.14347426  1
  O  O27  1  0.40346193  0.49409581  0.35652516  1
  O  O28  1  0.99583061  0.77145773  0.40554276  1
  O  O29  1  0.00416935  0.22854205  0.59445732  1
  O  O30  1  0.00417032  0.27145731  0.09445801  1
  O  O31  1  0.99582964  0.72854247  0.90554208  1
  Mo  Mo32  1  0.00853503  0.63599572  0.09041526  1
  Mo  Mo33  1  0.99146451  0.13599636  0.40958516  1
  Mo  Mo34  1  0.99146493  0.36400406  0.90958483  1
  Mo  Mo35  1  0.00853545  0.86400448  0.59041493  1
  Mo  Mo36  1  0.79296738  0.64150439  0.76992792  1
  Mo  Mo37  1  0.20703301  0.14150397  0.73007184  1
  Mo  Mo38  1  0.20703258  0.35849645  0.23007117  1
  Mo  Mo39  1  0.79296695  0.85849581  0.26992825  1
  Mo  Mo40  1  0.19025169  0.62398690  0.85757907  1
  Mo  Mo41  1  0.80974870  0.12398754  0.64242069  1
  Mo  Mo42  1  0.80974827  0.37601288  0.14242102  1
  Mo  Mo43  1  0.19025126  0.87601330  0.35757939  1
  Mo  Mo44  1  0.60510532  0.86409692  0.48097885  1
  Mo  Mo45  1  0.58366075  0.12858406  0.30088918  1
  Mo  Mo46  1  0.58366117  0.37141636  0.80088985  1
  Mo  Mo47  1  0.41633921  0.87141572  0.69911091  1
  Mo  Mo48  1  0.60510574  0.63590328  0.98097852  1
  Mo  Mo49  1  0.39489464  0.13590392  0.51902124  1
  Mo  Mo50  1  0.39489422  0.36409650  0.01902057  1
  Mo  Mo51  1  0.41633879  0.62858448  0.19911024  1
  Sn  Sn52  1  0.31106862  0.94368661  0.02182995  1
  Sn  Sn53  1  0.68893092  0.44368725  0.47816947  1
  Sn  Sn54  1  0.68893134  0.05631317  0.97817014  1
  Sn  Sn55  1  0.31106904  0.55631359  0.52183062  1
