# generated using pymatgen
data_Mn3TeO6
_symmetry_space_group_name_H-M   'P 1'
_cell_length_a   5.36294916
_cell_length_b   5.51920180
_cell_length_c   7.93942746
_cell_angle_alpha   90.06096287
_cell_angle_beta   90.29937974
_cell_angle_gamma   89.99058991
_symmetry_Int_Tables_number   1
_chemical_formula_structural   Mn3TeO6
_chemical_formula_sum   'Mn6 Te2 O12'
_cell_volume   234.99734646
_cell_formula_units_Z   2
loop_
 _symmetry_equiv_pos_site_id
 _symmetry_equiv_pos_as_xyz
  1  'x, y, z'
loop_
 _atom_site_type_symbol
 _atom_site_label
 _atom_site_symmetry_multiplicity
 _atom_site_fract_x
 _atom_site_fract_y
 _atom_site_fract_z
 _atom_site_occupancy
  Mn  Mn0  1  0.00003500  0.99959900  0.50084200  1
  Mn  Mn1  1  0.49941200  0.50003400  0.99837300  1
  Mn  Mn2  1  0.98824600  0.45196900  0.26040300  1
  Mn  Mn3  1  0.01235700  0.54701500  0.73844300  1
  Mn  Mn4  1  0.48723100  0.04711500  0.76139700  1
  Mn  Mn5  1  0.51247700  0.95276700  0.23866200  1
  Te  Te6  1  0.99981700  0.00012800  0.00038200  1
  Te  Te7  1  0.50006900  0.49974300  0.49964600  1
  O  O8  1  0.12810100  0.07805100  0.22784800  1
  O  O9  1  0.37252600  0.57833600  0.27233800  1
  O  O10  1  0.62757100  0.42167200  0.72745900  1
  O  O11  1  0.87202200  0.92215000  0.77279300  1
  O  O12  1  0.16882900  0.29133900  0.91632700  1
  O  O13  1  0.33083500  0.79044300  0.58449600  1
  O  O14  1  0.66963000  0.20879100  0.41577700  1
  O  O15  1  0.83021200  0.70980600  0.08432800  1
  O  O16  1  0.19729500  0.32126700  0.55280400  1
  O  O17  1  0.30250400  0.82192900  0.94671200  1
  O  O18  1  0.69797000  0.17992100  0.05390800  1
  O  O19  1  0.80286000  0.67792600  0.44706000  1
