# generated using pymatgen
data_Al2O3
_symmetry_space_group_name_H-M   'P 1'
_cell_length_a   10.63080810
_cell_length_b   10.54704154
_cell_length_c   10.17270967
_cell_angle_alpha   93.05571993
_cell_angle_beta   88.41563650
_cell_angle_gamma   86.80525636
_symmetry_Int_Tables_number   1
_chemical_formula_structural   Al2O3
_chemical_formula_sum   'Al40 O60'
_cell_volume   1136.67230632
_cell_formula_units_Z   20
loop_
 _symmetry_equiv_pos_site_id
 _symmetry_equiv_pos_as_xyz
  1  'x, y, z'
loop_
 _atom_site_type_symbol
 _atom_site_label
 _atom_site_symmetry_multiplicity
 _atom_site_fract_x
 _atom_site_fract_y
 _atom_site_fract_z
 _atom_site_occupancy
  Al  Al0  1  0.82251041  0.54038128  0.64327470  1
  Al  Al1  1  0.68627498  0.83417081  0.30249599  1
  Al  Al2  1  0.43281765  0.71715570  0.78564745  1
  Al  Al3  1  0.91940365  0.79237205  0.03985420  1
  Al  Al4  1  0.84807930  0.51187930  0.10308671  1
  Al  Al5  1  0.32836964  0.00394260  0.66443427  1
  Al  Al6  1  0.17672779  0.67236354  0.54248828  1
  Al  Al7  1  0.05302294  0.39526939  0.54128522  1
  Al  Al8  1  0.36379153  0.29259243  0.24253742  1
  Al  Al9  1  0.79480472  0.31618655  0.85306537  1
  Al  Al10  1  0.54574640  0.65219670  0.51100886  1
  Al  Al11  1  0.26624656  0.45541337  0.70037935  1
  Al  Al12  1  0.70008469  0.27075251  0.60827630  1
  Al  Al13  1  0.70722008  0.77895958  0.67979216  1
  Al  Al14  1  0.55266472  0.99642463  0.10457814  1
  Al  Al15  1  0.00695576  0.88894179  0.59282056  1
  Al  Al16  1  0.30827373  0.03161383  0.15996699  1
  Al  Al17  1  0.83539298  0.02736358  0.80852833  1
  Al  Al18  1  0.52137363  0.45683730  0.81589436  1
  Al  Al19  1  0.51504198  0.08223130  0.41741014  1
  Al  Al20  1  0.58313052  0.08035509  0.73436968  1
  Al  Al21  1  0.17814238  0.62344297  0.96155593  1
  Al  Al22  1  0.02107117  0.44924576  0.83529568  1
  Al  Al23  1  0.11800471  0.80542857  0.30886457  1
  Al  Al24  1  0.34852604  0.68028999  0.13667040  1
  Al  Al25  1  0.45958181  0.36001314  0.51919647  1
  Al  Al26  1  0.03650058  0.20728619  0.99986712  1
  Al  Al27  1  0.54970457  0.29063280  0.01938057  1
  Al  Al28  1  0.94449797  0.72722505  0.77566245  1
  Al  Al29  1  0.11002398  0.08952435  0.44406853  1
  Al  Al30  1  0.80712444  0.11389448  0.36652224  1
  Al  Al31  1  0.56677679  0.49446136  0.25002121  1
  Al  Al32  1  0.38806534  0.83382398  0.40584356  1
  Al  Al33  1  0.32428979  0.20550172  0.91196940  1
  Al  Al34  1  0.28353393  0.89650387  0.93998586  1
  Al  Al35  1  0.63339839  0.69079045  0.03635171  1
  Al  Al36  1  0.13079603  0.44821086  0.18329122  1
  Al  Al37  1  0.06904061  0.16002098  0.72756746  1
  Al  Al38  1  0.04455642  0.02066419  0.19114524  1
  Al  Al39  1  0.92218209  0.61232685  0.36793970  1
  O  O40  1  0.95586998  0.04392296  0.35644652  1
  O  O41  1  0.10464687  0.34770668  0.04654414  1
  O  O42  1  0.71579670  0.17729776  0.76913323  1
  O  O43  1  0.95785752  0.03723907  0.67705597  1
  O  O44  1  0.45092344  0.24130947  0.38383619  1
  O  O45  1  0.80435451  0.38056422  0.69374185  1
  O  O46  1  0.17585556  0.50981633  0.56962514  1
  O  O47  1  0.40630727  0.97690839  0.50501117  1
  O  O48  1  0.60548156  0.13182804  0.03290302  1
  O  O49  1  0.07966872  0.67313003  0.39583395  1
  O  O50  1  0.33699876  0.18734350  0.09450549  1
  O  O51  1  0.06127807  0.32787356  0.70946214  1
  O  O52  1  0.06467366  0.24857514  0.46248328  1
  O  O53  1  0.72132039  0.47458875  0.19838488  1
  O  O54  1  0.30576843  0.72788045  0.96725763  1
  O  O55  1  0.86882845  0.81015087  0.62136352  1
  O  O56  1  0.45429520  0.01681889  0.25718895  1
  O  O57  1  0.89151712  0.42669394  0.94846764  1
  O  O58  1  0.77829421  0.67530503  0.79076780  1
  O  O59  1  0.09578319  0.76922357  0.67685747  1
  O  O60  1  0.18730990  0.05928050  0.28419735  1
  O  O61  1  0.92125110  0.18479933  0.87083842  1
  O  O62  1  0.50828323  0.63050540  0.15468965  1
  O  O63  1  0.89469876  0.89422604  0.90467511  1
  O  O64  1  0.70587380  0.62662852  0.55389574  1
  O  O65  1  0.41594111  0.94262105  0.02632551  1
  O  O66  1  0.97216974  0.56073647  0.72392040  1
  O  O67  1  0.18196992  0.49169573  0.85299033  1
  O  O68  1  0.29000225  0.80035434  0.25987663  1
  O  O69  1  0.16858127  0.15814290  0.87472981  1
  O  O70  1  0.64288423  0.84987878  0.12559774  1
  O  O71  1  0.33766611  0.32169249  0.62476062  1
  O  O72  1  0.49115007  0.36939801  0.16829491  1
  O  O73  1  0.97525200  0.52544520  0.21337838  1
  O  O74  1  0.75848760  0.25265929  0.44639641  1
  O  O75  1  0.95338714  0.13390045  0.11914762  1
  O  O76  1  0.17816658  0.97807611  0.05314668  1
  O  O77  1  0.33375020  0.71487224  0.50606563  1
  O  O78  1  0.50818957  0.50201798  0.42083386  1
  O  O79  1  0.11399182  0.90559500  0.45701776  1
  O  O80  1  0.55024914  0.77282560  0.38431249  1
  O  O81  1  0.41780452  0.09494546  0.78682984  1
  O  O82  1  0.21758468  0.58120470  0.12278126  1
  O  O83  1  0.57111873  0.38776930  0.64969921  1
  O  O84  1  0.53608830  0.76264118  0.65937067  1
  O  O85  1  0.64684955  0.38667247  0.92366884  1
  O  O86  1  0.39176224  0.55843483  0.73905493  1
  O  O87  1  0.80236180  0.67127163  0.05761313  1
  O  O88  1  0.54508715  0.63938293  0.89695333  1
  O  O89  1  0.81885405  0.73955105  0.33012736  1
  O  O90  1  0.32359304  0.86736095  0.77130062  1
  O  O91  1  0.58270975  0.13523905  0.57259391  1
  O  O92  1  0.92256661  0.49744043  0.48863471  1
  O  O93  1  0.42380621  0.33638672  0.90439561  1
  O  O94  1  0.18649854  0.07966587  0.61548827  1
  O  O95  1  0.01514030  0.84767937  0.17748305  1
  O  O96  1  0.68540042  0.94481918  0.75855621  1
  O  O97  1  0.02936359  0.69299306  0.93983564  1
  O  O98  1  0.23520163  0.38870266  0.29334647  1
  O  O99  1  0.68166606  0.00731421  0.34538410  1
