# generated using pymatgen
data_Pb4SBr6
_symmetry_space_group_name_H-M   'P 1'
_cell_length_a   4.32026019
_cell_length_b   9.90634837
_cell_length_c   9.85528498
_cell_angle_alpha   62.18622365
_cell_angle_beta   77.38082426
_cell_angle_gamma   77.49321516
_symmetry_Int_Tables_number   1
_chemical_formula_structural   Pb4SBr6
_chemical_formula_sum   'Pb4 S1 Br6'
_cell_volume   360.82109165
_cell_formula_units_Z   1
loop_
 _symmetry_equiv_pos_site_id
 _symmetry_equiv_pos_as_xyz
  1  'x, y, z'
loop_
 _atom_site_type_symbol
 _atom_site_label
 _atom_site_symmetry_multiplicity
 _atom_site_fract_x
 _atom_site_fract_y
 _atom_site_fract_z
 _atom_site_occupancy
  Pb  Pb0  1  0.99665036  0.98073850  0.02017109  1
  Pb  Pb1  1  0.25117561  0.53447387  0.97197808  1
  Pb  Pb2  1  0.49652337  0.55421574  0.44676675  1
  Pb  Pb3  1  0.74921068  0.02926155  0.46939824  1
  S  S4  1  0.99882809  0.71518744  0.28186236  1
  Br  Br5  1  0.36211673  0.09643722  0.17466630  1
  Br  Br6  1  0.63147959  0.82785015  0.90171343  1
  Br  Br7  1  0.12032219  0.16858866  0.58823631  1
  Br  Br8  1  0.87458459  0.41506424  0.83226909  1
  Br  Br9  1  0.30853834  0.76934736  0.60878847  1
  Br  Br10  1  0.68918246  0.39051626  0.23244687  1
