# generated using pymatgen
data_CdGe7N10
_symmetry_space_group_name_H-M   'P 1'
_cell_length_a   7.13652679
_cell_length_b   7.28806030
_cell_length_c   10.32072965
_cell_angle_alpha   90.00000000
_cell_angle_beta   104.35980749
_cell_angle_gamma   90.00000000
_symmetry_Int_Tables_number   1
_chemical_formula_structural   CdGe7N10
_chemical_formula_sum   'Cd2 Ge14 N20'
_cell_volume   520.02507143
_cell_formula_units_Z   2
loop_
 _symmetry_equiv_pos_site_id
 _symmetry_equiv_pos_as_xyz
  1  'x, y, z'
loop_
 _atom_site_type_symbol
 _atom_site_label
 _atom_site_symmetry_multiplicity
 _atom_site_fract_x
 _atom_site_fract_y
 _atom_site_fract_z
 _atom_site_occupancy
  Cd  Cd0  1  0.99485624  0.95201055  0.70265353  1
  Cd  Cd1  1  0.99485624  0.04798945  0.20265353  1
  Ge  Ge2  1  0.54676030  0.97864184  0.82371634  1
  Ge  Ge3  1  0.54676030  0.02135816  0.32371634  1
  Ge  Ge4  1  0.34633723  0.02316970  0.02125290  1
  Ge  Ge5  1  0.34633723  0.97683030  0.52125290  1
  Ge  Ge6  1  0.10821574  0.39773790  0.07202919  1
  Ge  Ge7  1  0.10821574  0.60226210  0.57202919  1
  Ge  Ge8  1  0.66142623  0.36065159  0.99288292  1
  Ge  Ge9  1  0.66142623  0.63934841  0.49288292  1
  Ge  Ge10  1  0.84488893  0.61458865  0.80722925  1
  Ge  Ge11  1  0.84488893  0.38541135  0.30722925  1
  Ge  Ge12  1  0.29961036  0.62043613  0.88100493  1
  Ge  Ge13  1  0.29961036  0.37956387  0.38100493  1
  Ge  Ge14  1  0.48512492  0.36682042  0.68515568  1
  Ge  Ge15  1  0.48512492  0.63317958  0.18515568  1
  N  N16  1  0.76090242  0.85472639  0.80548409  1
  N  N17  1  0.76090242  0.14527361  0.30548409  1
  N  N18  1  0.55718030  0.13115441  0.97184740  1
  N  N19  1  0.55718030  0.86884559  0.47184740  1
  N  N20  1  0.31468666  0.87391284  0.86398444  1
  N  N21  1  0.31468666  0.12608716  0.36398444  1
  N  N22  1  0.13384806  0.14902203  0.03912089  1
  N  N23  1  0.13384806  0.85097797  0.53912089  1
  N  N24  1  0.28955914  0.50967598  0.72006145  1
  N  N25  1  0.28955914  0.49032402  0.22006145  1
  N  N26  1  0.44019901  0.11943229  0.67299491  1
  N  N27  1  0.44019901  0.88056771  0.17299491  1
  N  N28  1  0.88137989  0.39305470  0.13031580  1
  N  N29  1  0.88137989  0.60694530  0.63031580  1
  N  N30  1  0.07674955  0.57300240  0.93542457  1
  N  N31  1  0.07674955  0.42699760  0.43542457  1
  N  N32  1  0.70165660  0.40965752  0.82408004  1
  N  N33  1  0.70165660  0.59034248  0.32408004  1
  N  N34  1  0.49892043  0.54434691  0.02006366  1
  N  N35  1  0.49892043  0.45565309  0.52006366  1
