# generated using pymatgen
data_Sb2(CN2)3
_symmetry_space_group_name_H-M   'P 1'
_cell_length_a   7.66953336
_cell_length_b   3.85806782
_cell_length_c   5.24749057
_cell_angle_alpha   90.00000110
_cell_angle_beta   83.23318186
_cell_angle_gamma   75.43258014
_symmetry_Int_Tables_number   1
_chemical_formula_structural   Sb2(CN2)3
_chemical_formula_sum   'Sb2 C3 N6'
_cell_volume   149.16161865
_cell_formula_units_Z   1
loop_
 _symmetry_equiv_pos_site_id
 _symmetry_equiv_pos_as_xyz
  1  'x, y, z'
loop_
 _atom_site_type_symbol
 _atom_site_label
 _atom_site_symmetry_multiplicity
 _atom_site_fract_x
 _atom_site_fract_y
 _atom_site_fract_z
 _atom_site_occupancy
  Sb  Sb0  1  0.26564525  0.86717737  0.91761850  1
  Sb  Sb1  1  0.73435475  0.13282263  0.08238150  1
  C  C2  1  0.65403518  0.67298191  0.57828525  1
  C  C3  1  0.34596482  0.32701809  0.42171475  1
  C  C4  1  0.00000000  0.00000000  0.50000000  1
  N  N5  1  0.30810649  0.34594726  0.65805135  1
  N  N6  1  0.69189351  0.65405274  0.34194865  1
  N  N7  1  0.38935295  0.30532303  0.18720880  1
  N  N8  1  0.61064705  0.69467697  0.81279120  1
  N  N9  1  0.00219901  0.99890050  0.26408141  1
  N  N10  1  0.99780099  0.00109950  0.73591859  1
