# generated using pymatgen
data_In4S3N2
_symmetry_space_group_name_H-M   'P 1'
_cell_length_a   6.62916724
_cell_length_b   3.77626396
_cell_length_c   9.96872700
_cell_angle_alpha   89.99999938
_cell_angle_beta   50.83567111
_cell_angle_gamma   73.45179975
_symmetry_Int_Tables_number   1
_chemical_formula_structural   In4S3N2
_chemical_formula_sum   'In4 S3 N2'
_cell_volume   179.95886362
_cell_formula_units_Z   1
loop_
 _symmetry_equiv_pos_site_id
 _symmetry_equiv_pos_as_xyz
  1  'x, y, z'
loop_
 _atom_site_type_symbol
 _atom_site_label
 _atom_site_symmetry_multiplicity
 _atom_site_fract_x
 _atom_site_fract_y
 _atom_site_fract_z
 _atom_site_occupancy
  In  In0  1  0.25231842  0.87384079  0.65406040  1
  In  In1  1  0.74768158  0.12615921  0.34593960  1
  In  In2  1  0.57185201  0.71407399  0.13472068  1
  In  In3  1  0.42814799  0.28592601  0.86527932  1
  S  S4  1  -0.00000000  0.00000000  0.00000000  1
  S  S5  1  0.77728356  0.61135772  0.80029199  1
  S  S6  1  0.22271644  0.38864228  0.19970801  1
  N  N7  1  0.54448202  0.72775899  0.36127828  1
  N  N8  1  0.45551798  0.27224101  0.63872172  1
