# generated using pymatgen
data_CaMo5O8
_symmetry_space_group_name_H-M   'P 1'
_cell_length_a   8.45788308
_cell_length_b   9.49058503
_cell_length_c   10.74275081
_cell_angle_alpha   90.00000000
_cell_angle_beta   108.82081344
_cell_angle_gamma   90.00000000
_symmetry_Int_Tables_number   1
_chemical_formula_structural   CaMo5O8
_chemical_formula_sum   'Ca4 Mo20 O32'
_cell_volume   816.21679024
_cell_formula_units_Z   4
loop_
 _symmetry_equiv_pos_site_id
 _symmetry_equiv_pos_as_xyz
  1  'x, y, z'
loop_
 _atom_site_type_symbol
 _atom_site_label
 _atom_site_symmetry_multiplicity
 _atom_site_fract_x
 _atom_site_fract_y
 _atom_site_fract_z
 _atom_site_occupancy
  O  O0  1  0.41818221  0.50270267  0.86543829  1
  O  O1  1  0.58181741  1.00270238  0.63456114  1
  O  O2  1  0.58181753  0.49729810  0.13456074  1
  O  O3  1  0.41818232  -0.00270270  0.36543888  1
  O  O4  1  0.62487400  0.72095891  0.33256591  1
  O  O5  1  0.37512719  0.22095861  0.16743495  1
  O  O6  1  0.37512714  0.27904077  0.66743448  1
  O  O7  1  0.62487394  0.77904107  0.83256544  1
  O  O8  1  0.20465227  0.73098325  0.70636708  1
  O  O9  1  0.79534741  0.23098411  0.79363346  1
  O  O10  1  0.79534746  0.26901643  0.29363294  1
  O  O11  1  0.20465233  0.76901666  0.20636656  1
  O  O12  1  0.81314614  0.73063162  0.60874342  1
  O  O13  1  0.18685494  0.23063252  0.89125748  1
  O  O14  1  0.18685500  0.26936806  0.39125697  1
  O  O15  1  0.81314480  0.76936825  0.10874254  1
  O  O16  1  0.39789807  0.75379497  0.51728549  1
  O  O17  1  0.60210161  0.25379483  0.98271505  1
  O  O18  1  0.60210167  0.24620471  0.48271453  1
  O  O19  1  0.39789812  0.74620485  0.01728498  1
  O  O20  1  0.99301836  0.49435828  0.77974992  1
  O  O21  1  0.00698266  -0.00564198  0.72024988  1
  O  O22  1  0.00698138  0.50564140  0.22025011  1
  O  O23  1  0.99301847  1.00564166  0.27975051  1
  O  O24  1  0.39644857  0.00708775  0.84736949  1
  O  O25  1  0.60355106  0.50708687  0.65262995  1
  O  O26  1  0.60355117  0.99291302  0.15263053  1
  O  O27  1  0.39644868  0.49291281  0.34737008  1
  O  O28  1  0.00910206  0.76535157  0.42386062  1
  O  O29  1  0.99089907  0.23464811  0.57613977  1
  O  O30  1  0.99089772  0.26535232  0.07613888  1
  O  O31  1  0.00910201  0.73464844  0.92386016  1
  Ca  Ca32  1  0.32328139  0.51758522  0.53682945  1
  Ca  Ca33  1  0.67671823  1.01758509  0.96316999  1
  Ca  Ca34  1  0.67671834  0.48241446  0.46317058  1
  Ca  Ca35  1  0.32328151  -0.01758541  0.03683004  1
  Mo  Mo36  1  0.40833068  0.63442560  0.19720844  1
  Mo  Mo37  1  0.20742306  0.13767706  0.71988015  1
  Mo  Mo38  1  0.20742314  0.36232233  0.21987969  1
  Mo  Mo39  1  0.79257668  0.86232262  0.28011987  1
  Mo  Mo40  1  0.20492419  0.62482179  0.87879378  1
  Mo  Mo41  1  0.79507546  0.12482256  0.62120671  1
  Mo  Mo42  1  0.79507554  0.37517789  0.12120625  1
  Mo  Mo43  1  0.20492428  0.87517712  0.37879332  1
  Mo  Mo44  1  0.79257660  0.63767735  0.78012034  1
  Mo  Mo45  1  0.59166908  0.13442539  0.30279199  1
  Mo  Mo46  1  0.59167046  0.36557408  0.80279195  1
  Mo  Mo47  1  0.40833065  0.86557429  0.69720803  1
  Mo  Mo48  1  0.60697192  0.64690076  0.98636521  1
  Mo  Mo49  1  0.39302773  0.14690039  0.51363527  1
  Mo  Mo50  1  0.39302782  0.35310001  0.01363482  1
  Mo  Mo51  1  0.60697201  0.85309929  0.48636476  1
  Mo  Mo52  1  1.00947064  0.84764778  0.59283366  1
  Mo  Mo53  1  -0.00947093  0.34764759  0.90716694  1
  Mo  Mo54  1  -0.00947090  0.15235190  0.40716637  1
  Mo  Mo55  1  1.00947066  0.65235209  0.09283308  1
