# generated using pymatgen
data_Co5(Bi2O5)4
_symmetry_space_group_name_H-M   'P 1'
_cell_length_a   8.57330535
_cell_length_b   8.78896746
_cell_length_c   8.85434131
_cell_angle_alpha   110.37939172
_cell_angle_beta   109.34283149
_cell_angle_gamma   112.03265052
_symmetry_Int_Tables_number   1
_chemical_formula_structural   Co5(Bi2O5)4
_chemical_formula_sum   'Co5 Bi8 O20'
_cell_volume   491.07362539
_cell_formula_units_Z   1
loop_
 _symmetry_equiv_pos_site_id
 _symmetry_equiv_pos_as_xyz
  1  'x, y, z'
loop_
 _atom_site_type_symbol
 _atom_site_label
 _atom_site_symmetry_multiplicity
 _atom_site_fract_x
 _atom_site_fract_y
 _atom_site_fract_z
 _atom_site_occupancy
  Co  Co0  1  0.50454187  0.70037013  0.79867476  1
  Co  Co1  1  0.99650171  0.98804750  0.97477583  1
  Co  Co2  1  0.32432286  0.22168617  0.59226856  1
  Co  Co3  1  0.67410074  0.76786877  0.48919542  1
  Co  Co4  1  0.49587555  0.27712698  0.16233664  1
  Bi  Bi5  1  0.15132802  0.82394138  0.66722569  1
  Bi  Bi6  1  0.17762669  0.37707474  0.87835528  1
  Bi  Bi7  1  0.20054625  0.50203936  0.32700105  1
  Bi  Bi8  1  0.31454143  0.87328157  0.16080429  1
  Bi  Bi9  1  0.65814443  0.15531906  0.83137642  1
  Bi  Bi10  1  0.77031763  0.49426323  0.63766422  1
  Bi  Bi11  1  0.82932240  0.67770748  0.17629383  1
  Bi  Bi12  1  0.86698509  0.13695750  0.35579947  1
  O  O13  1  0.08450168  0.70677678  0.36333161  1
  O  O14  1  0.32972597  0.67696475  0.94347628  1
  O  O15  1  0.91121483  0.94167107  0.71286445  1
  O  O16  1  0.99948010  0.76950418  0.99064729  1
  O  O17  1  0.01117016  0.39772086  0.01769404  1
  O  O18  1  0.30276190  0.42871128  0.64319079  1
  O  O19  1  0.38287686  0.78681271  0.66036108  1
  O  O20  1  0.42615266  0.70696001  0.32828497  1
  O  O21  1  0.33701428  0.09534514  0.71698310  1
  O  O22  1  0.26267742  0.25827482  0.13292412  1
  O  O23  1  0.57693350  0.62127167  0.58750601  1
  O  O24  1  0.60383338  0.35240697  0.73510767  1
  O  O25  1  0.74537759  0.87207153  0.34736723  1
  O  O26  1  0.35227042  0.01178419  0.99458769  1
  O  O27  1  0.68256378  0.55723695  0.33341081  1
  O  O28  1  0.59097337  0.21901695  0.35085547  1
  O  O29  1  0.91725463  0.29707103  0.64123123  1
  O  O30  1  0.68521680  0.32877585  0.08663259  1
  O  O31  1  0.74827488  0.92300118  0.98789206  1
  O  O32  1  0.08557110  0.05293819  0.37388004  1
