# generated using pymatgen
data_Zn(FeO2)2
_symmetry_space_group_name_H-M   'P 1'
_cell_length_a   6.11272621
_cell_length_b   6.08756513
_cell_length_c   36.26618479
_cell_angle_alpha   60.51575549
_cell_angle_beta   58.97984831
_cell_angle_gamma   58.51704662
_symmetry_Int_Tables_number   1
_chemical_formula_structural   Zn(FeO2)2
_chemical_formula_sum   'Zn11 Fe22 O44'
_cell_volume   939.22044727
_cell_formula_units_Z   11
loop_
 _symmetry_equiv_pos_site_id
 _symmetry_equiv_pos_as_xyz
  1  'x, y, z'
loop_
 _atom_site_type_symbol
 _atom_site_label
 _atom_site_symmetry_multiplicity
 _atom_site_fract_x
 _atom_site_fract_y
 _atom_site_fract_z
 _atom_site_occupancy
  Zn  Zn0  1  0.10270362  0.09210930  0.01627091  1
  Zn  Zn1  1  0.54415465  0.98407723  0.08470402  1
  Zn  Zn2  1  0.54267134  0.98728421  0.25077487  1
  Zn  Zn3  1  0.11399814  0.09113386  0.50877845  1
  Zn  Zn4  1  0.54589417  0.98844264  0.41649408  1
  Zn  Zn5  1  0.51725620  0.98490751  0.58718349  1
  Zn  Zn6  1  0.14018953  0.11944374  0.68663346  1
  Zn  Zn7  1  0.00362965  0.49655791  0.74989259  1
  Zn  Zn8  1  0.14087093  0.12038577  0.85386439  1
  Zn  Zn9  1  0.99461313  0.51249463  0.58588111  1
  Zn  Zn10  1  0.00074770  0.50429112  0.91562185  1
  Fe  Fe11  1  0.50881175  0.53226742  0.99902919  1
  Fe  Fe12  1  0.11594196  0.07974996  0.18065449  1
  Fe  Fe13  1  0.47679755  0.51083157  0.08626157  1
  Fe  Fe14  1  0.12101139  0.08730876  0.34489544  1
  Fe  Fe15  1  0.54551044  0.52265888  0.16211778  1
  Fe  Fe16  1  0.48233038  0.51131192  0.25241598  1
  Fe  Fe17  1  0.85790272  0.87886011  0.14878966  1
  Fe  Fe18  1  0.54730634  0.52504164  0.32753412  1
  Fe  Fe19  1  0.48131449  0.50575017  0.41820007  1
  Fe  Fe20  1  0.85648165  0.87609251  0.31562004  1
  Fe  Fe21  1  0.55403464  0.51783869  0.49328154  1
  Fe  Fe22  1  0.49936265  0.49702846  0.58265803  1
  Fe  Fe23  1  0.87005128  0.87386366  0.48138777  1
  Fe  Fe24  1  0.50057352  0.49001529  0.66841926  1
  Fe  Fe25  1  0.49685195  0.49558251  0.74994034  1
  Fe  Fe26  1  0.86757827  0.87559220  0.64815785  1
  Fe  Fe27  1  0.49541544  0.50830529  0.83433680  1
  Fe  Fe28  1  0.49849301  0.00138298  0.75035974  1
  Fe  Fe29  1  0.49417758  0.50284613  0.91750913  1
  Fe  Fe30  1  0.86040965  0.87750169  0.81292990  1
  Fe  Fe31  1  0.50288985  0.01575092  0.91434746  1
  Fe  Fe32  1  0.85340181  0.88503570  0.98073536  1
  O  O33  1  0.28200148  0.24801338  0.12113047  1
  O  O34  1  0.26463452  0.71944945  0.04297575  1
  O  O35  1  0.71606893  0.27964702  0.04102626  1
  O  O36  1  0.26094893  0.73914039  0.12890892  1
  O  O37  1  0.68154968  0.78508550  0.04288843  1
  O  O38  1  0.70023774  0.26867720  0.12891426  1
  O  O39  1  0.27637812  0.71806524  0.20756704  1
  O  O40  1  0.28103781  0.25027616  0.28545581  1
  O  O41  1  0.73758898  0.26858201  0.20723236  1
  O  O42  1  0.76188525  0.74218562  0.12503586  1
  O  O43  1  0.25892930  0.73748737  0.29578358  1
  O  O44  1  0.68483362  0.77552343  0.21170269  1
  O  O45  1  0.70316826  0.26770961  0.29533447  1
  O  O46  1  0.28788665  0.25767527  0.44904467  1
  O  O47  1  0.27800866  0.72489480  0.37281279  1
  O  O48  1  0.74380720  0.27163510  0.37230795  1
  O  O49  1  0.76403864  0.74321897  0.29096504  1
  O  O50  1  0.26535026  0.72661704  0.46252606  1
  O  O51  1  0.70892043  0.25703983  0.46210078  1
  O  O52  1  0.68043118  0.77418696  0.37876457  1
  O  O53  1  0.26837289  0.70681879  0.54207170  1
  O  O54  1  0.26550018  0.26441812  0.61897230  1
  O  O55  1  0.72483243  0.25462606  0.54139076  1
  O  O56  1  0.75700221  0.74578820  0.45936908  1
  O  O57  1  0.26675271  0.73185950  0.62596229  1
  O  O58  1  0.28668444  0.24012833  0.70952282  1
  O  O59  1  0.74820356  0.26854534  0.62240614  1
  O  O60  1  0.27576775  0.25257827  0.78612923  1
  O  O61  1  0.73317479  0.73336945  0.54761847  1
  O  O62  1  0.26744236  0.71631562  0.71056188  1
  O  O63  1  0.72034232  0.24221170  0.71132867  1
  O  O64  1  0.73552092  0.73234943  0.63037458  1
  O  O65  1  0.27572142  0.26001765  0.87447657  1
  O  O66  1  0.26793174  0.75322450  0.79113080  1
  O  O67  1  0.72874793  0.74668619  0.71386344  1
  O  O68  1  0.73595380  0.26950953  0.79181248  1
  O  O69  1  0.27201200  0.26702339  0.95291637  1
  O  O70  1  0.27290382  0.71893830  0.87798055  1
  O  O71  1  0.71946861  0.26365002  0.87764645  1
  O  O72  1  0.72163914  0.75711480  0.79129950  1
  O  O73  1  0.26725111  0.74427218  0.95823940  1
  O  O74  1  0.72817669  0.74075277  0.87853190  1
  O  O75  1  0.71654368  0.28210896  0.95889312  1
  O  O76  1  0.73297049  0.76083813  0.95600996  1
