# generated using pymatgen
data_Ir3(CO)8
_symmetry_space_group_name_H-M   'P 1'
_cell_length_a   9.83526305
_cell_length_b   9.87164292
_cell_length_c   15.91069068
_cell_angle_alpha   97.87649585
_cell_angle_beta   100.43889321
_cell_angle_gamma   119.19315677
_symmetry_Int_Tables_number   1
_chemical_formula_structural   Ir3(CO)8
_chemical_formula_sum   'Ir12 C32 O32'
_cell_volume   1279.70659743
_cell_formula_units_Z   4
loop_
 _symmetry_equiv_pos_site_id
 _symmetry_equiv_pos_as_xyz
  1  'x, y, z'
loop_
 _atom_site_type_symbol
 _atom_site_label
 _atom_site_symmetry_multiplicity
 _atom_site_fract_x
 _atom_site_fract_y
 _atom_site_fract_z
 _atom_site_occupancy
  Ir  Ir0  1  0.58530699  0.83278879  0.74925641  1
  Ir  Ir1  1  0.48299008  0.46156864  0.21405191  1
  Ir  Ir2  1  0.74845912  0.26855159  0.28559914  1
  Ir  Ir3  1  0.58215052  0.27524044  0.12177260  1
  Ir  Ir4  1  0.41518039  0.16455198  0.24973774  1
  Ir  Ir5  1  0.65150603  0.45729522  0.37836765  1
  Ir  Ir6  1  0.34515198  0.54118285  0.62173403  1
  Ir  Ir7  1  0.25156835  0.73166774  0.71519286  1
  Ir  Ir8  1  0.42139704  0.72558353  0.87825022  1
  Ir  Ir9  1  0.81789803  0.56686967  0.25098527  1
  Ir  Ir10  1  0.51581734  0.53547557  0.78489508  1
  Ir  Ir11  1  0.18100127  0.43314758  0.74987724  1
  C  C12  1  0.49996227  0.33893938  0.73976357  1
  C  C13  1  0.71358974  0.61186837  0.87314129  1
  C  C14  1  0.63127733  0.36593270  0.47639292  1
  C  C15  1  0.00337619  0.39640057  0.79468968  1
  C  C16  1  0.46604957  0.92861593  0.82265321  1
  C  C17  1  0.09865608  0.75768043  0.76083695  1
  C  C18  1  0.36910716  0.63256909  0.52380707  1
  C  C19  1  0.60634250  0.64014774  0.67737297  1
  C  C20  1  0.76191665  0.15863625  0.37300180  1
  C  C21  1  0.89994320  0.50987016  0.37158332  1
  C  C22  1  0.20233126  0.03578093  0.17034605  1
  C  C23  1  0.49949204  0.65846255  0.25897269  1
  C  C24  1  0.39364131  0.35798849  0.32324667  1
  C  C25  1  0.23767137  0.84149611  0.62779249  1
  C  C26  1  0.90199814  0.24299473  0.24042789  1
  C  C27  1  0.89696146  0.78843280  0.29350640  1
  C  C28  1  0.36653453  0.03157302  0.32894103  1
  C  C29  1  0.72984890  0.66784098  0.44692530  1
  C  C30  1  0.63350633  0.96439400  0.66930390  1
  C  C31  1  0.09920797  0.48920255  0.62778692  1
  C  C32  1  0.72442869  0.28135706  0.05367750  1
  C  C33  1  0.28492383  0.38482305  0.12582187  1
  C  C34  1  0.79733332  0.96228646  0.82952668  1
  C  C35  1  0.53629484  0.07104420  0.17611953  1
  C  C36  1  0.27192584  0.33253827  0.55295856  1
  C  C37  1  0.99605804  0.60468474  0.20672004  1
  C  C38  1  0.61087952  0.84415425  0.97681959  1
  C  C39  1  0.09968816  0.21129636  0.70655290  1
  C  C40  1  0.39246341  0.15592028  0.02357724  1
  C  C41  1  0.35842332  0.47237613  0.87112518  1
  C  C42  1  0.28070096  0.71882274  0.94735531  1
  C  C43  1  0.63857413  0.52698534  0.12845800  1
  O  O44  1  0.70658932  0.64193156  0.64419955  1
  O  O45  1  0.94182408  0.92372610  0.31723633  1
  O  O46  1  0.05314390  0.07569278  0.68202063  1
  O  O47  1  0.97016427  0.42055303  0.57310884  1
  O  O48  1  0.81403252  0.29100383  0.01312703  1
  O  O49  1  0.61015110  0.30288332  0.53307494  1
  O  O50  1  0.29107868  0.35439791  0.35476230  1
  O  O51  1  0.22632507  0.90565928  0.57378085  1
  O  O52  1  0.50416570  0.06314356  0.85488042  1
  O  O53  1  0.92575729  0.04214490  0.87947111  1
  O  O54  1  0.10592429  0.62681517  0.18043409  1
  O  O55  1  0.49512249  0.22250927  0.70947140  1
  O  O56  1  0.39351841  0.69443987  0.46687668  1
  O  O57  1  0.16672763  0.34035283  0.07103888  1
  O  O58  1  0.78470086  0.79910595  0.48691927  1
  O  O59  1  0.66238988  0.04383177  0.62004285  1
  O  O60  1  0.89372113  0.37498788  0.82093703  1
  O  O61  1  0.77411399  0.09501757  0.42714280  1
  O  O62  1  0.22300600  0.20353221  0.51192451  1
  O  O63  1  0.50050211  0.93756657  0.14328009  1
  O  O64  1  0.33673801  0.95151065  0.37783604  1
  O  O65  1  0.34245686  0.39889178  0.92602079  1
  O  O66  1  0.72922546  0.92270225  0.03464604  1
  O  O67  1  0.27231752  0.07653085  0.96691653  1
  O  O68  1  0.65394294  0.60156581  0.07410504  1
  O  O69  1  0.02820185  0.57846022  0.42694120  1
  O  O70  1  0.83278022  0.65755716  0.92748230  1
  O  O71  1  0.19112082  0.70646177  0.98844812  1
  O  O72  1  0.99006266  0.22163546  0.20969395  1
  O  O73  1  0.07294756  0.95639971  0.12131003  1
  O  O74  1  0.50687495  0.77624158  0.28912463  1
  O  O75  1  0.00964220  0.77804118  0.79118806  1
