# generated using pymatgen
data_Ta2O5
_symmetry_space_group_name_H-M   'P 1'
_cell_length_a   6.92468436
_cell_length_b   7.47292121
_cell_length_c   7.15298288
_cell_angle_alpha   59.68688937
_cell_angle_beta   62.77418983
_cell_angle_gamma   64.92890523
_symmetry_Int_Tables_number   1
_chemical_formula_structural   Ta2O5
_chemical_formula_sum   'Ta6 O15'
_cell_volume   275.02992910
_cell_formula_units_Z   3
loop_
 _symmetry_equiv_pos_site_id
 _symmetry_equiv_pos_as_xyz
  1  'x, y, z'
loop_
 _atom_site_type_symbol
 _atom_site_label
 _atom_site_symmetry_multiplicity
 _atom_site_fract_x
 _atom_site_fract_y
 _atom_site_fract_z
 _atom_site_occupancy
  Ta  Ta0  1  0.25650103  0.96519242  0.02792946  1
  Ta  Ta1  1  0.23156124  0.02930326  0.53525504  1
  Ta  Ta2  1  0.75042858  0.04027026  0.99174424  1
  Ta  Ta3  1  0.26956015  0.48013996  0.98361842  1
  Ta  Ta4  1  0.70472717  0.55401528  0.01219746  1
  Ta  Ta5  1  0.77339566  0.97870266  0.47219330  1
  O  O6  1  0.06331912  0.10519334  0.81777072  1
  O  O7  1  0.19865600  0.31393952  0.31992710  1
  O  O8  1  0.36858403  0.65048385  0.06888073  1
  O  O9  1  0.14301590  0.96267213  0.33740333  1
  O  O10  1  0.45693023  0.01150041  0.67738998  1
  O  O11  1  0.30815157  0.71068240  0.69266349  1
  O  O12  1  0.31806861  0.23739100  0.92636395  1
  O  O13  1  0.57708823  0.83873480  0.05738356  1
  O  O14  1  0.73933415  0.28337017  0.26917905  1
  O  O15  1  0.55736926  0.98819758  0.32189101  1
  O  O16  1  0.85690665  0.03948355  0.67616899  1
  O  O17  1  0.63054085  0.34058345  0.93424121  1
  O  O18  1  0.95407092  0.59041587  0.03505864  1
  O  O19  1  0.82223791  0.67270973  0.68883456  1
  O  O20  1  0.94725276  0.88631836  0.19600575  1
