# generated using pymatgen
data_V2O3F
_symmetry_space_group_name_H-M   'P 1'
_cell_length_a   4.58237800
_cell_length_b   10.39890818
_cell_length_c   5.53277091
_cell_angle_alpha   81.80070874
_cell_angle_beta   90.00034886
_cell_angle_gamma   89.99993491
_symmetry_Int_Tables_number   1
_chemical_formula_structural   V2O3F
_chemical_formula_sum   'V8 O12 F4'
_cell_volume   260.95110314
_cell_formula_units_Z   4
loop_
 _symmetry_equiv_pos_site_id
 _symmetry_equiv_pos_as_xyz
  1  'x, y, z'
loop_
 _atom_site_type_symbol
 _atom_site_label
 _atom_site_symmetry_multiplicity
 _atom_site_fract_x
 _atom_site_fract_y
 _atom_site_fract_z
 _atom_site_occupancy
  V  V0  1  0.50001600  0.25001200  0.74999200  1
  V  V1  1  0.51879600  0.98776100  0.50319600  1
  V  V2  1  0.49999400  0.74998600  0.24998800  1
  V  V3  1  0.48121400  0.51224300  0.99680200  1
  V  V4  1  0.00000800  0.24999800  0.24998800  1
  V  V5  1  0.99998400  0.75001000  0.75001800  1
  V  V6  1  0.98121300  0.48775700  0.50319200  1
  V  V7  1  0.01877600  0.01224200  0.99681400  1
  O  O8  1  0.79389300  0.57034900  0.77543300  1
  O  O9  1  0.80643900  0.32397400  0.52434600  1
  O  O10  1  0.79158900  0.07558200  0.27610300  1
  O  O11  1  0.69356500  0.82397200  0.52435200  1
  O  O12  1  0.70611400  0.07034700  0.77543500  1
  O  O13  1  0.70841500  0.57558100  0.27610700  1
  O  O14  1  0.29158600  0.92441700  0.22389800  1
  O  O15  1  0.29388600  0.42965200  0.72457000  1
  O  O16  1  0.30643000  0.67602600  0.97564700  1
  O  O17  1  0.20611000  0.92964800  0.72457300  1
  O  O18  1  0.19356500  0.17602500  0.97564900  1
  O  O19  1  0.20841300  0.42441900  0.22389600  1
  F  F20  1  0.80740000  0.82949800  0.02656700  1
  F  F21  1  0.69260200  0.32949900  0.02656600  1
  F  F22  1  0.30739600  0.17050300  0.47343700  1
  F  F23  1  0.19259800  0.67050000  0.47343400  1
