# generated using pymatgen
data_V2OF5
_symmetry_space_group_name_H-M   'P 1'
_cell_length_a   5.23736268
_cell_length_b   13.52627746
_cell_length_c   5.23736268
_cell_angle_alpha   90.00000782
_cell_angle_beta   120.00000853
_cell_angle_gamma   89.99999218
_symmetry_Int_Tables_number   1
_chemical_formula_structural   V2OF5
_chemical_formula_sum   'V6 O3 F15'
_cell_volume   321.31735535
_cell_formula_units_Z   3
loop_
 _symmetry_equiv_pos_site_id
 _symmetry_equiv_pos_as_xyz
  1  'x, y, z'
loop_
 _atom_site_type_symbol
 _atom_site_label
 _atom_site_symmetry_multiplicity
 _atom_site_fract_x
 _atom_site_fract_y
 _atom_site_fract_z
 _atom_site_occupancy
  V  V0  1  0.00202300  0.49593600  0.02619300  1
  V  V1  1  0.97582900  0.00406400  0.97380700  1
  V  V2  1  0.64047400  0.82927000  0.30916200  1
  V  V3  1  0.33131100  0.67073000  0.69083800  1
  V  V4  1  0.69285900  0.33739700  0.33535600  1
  V  V5  1  0.35750400  0.16260300  0.66464400  1
  O  O6  1  0.42171400  0.75000000  0.00000000  1
  O  O7  1  0.91161900  0.41666700  0.24495200  1
  O  O8  1  0.66666700  0.08333300  0.75504800  1
  F  F9  1  0.99970900  0.75010800  0.40521600  1
  F  F10  1  0.33362400  0.41655900  0.07217400  1
  F  F11  1  0.07188300  0.08322600  0.33304200  1
  F  F12  1  0.31634500  0.91977900  0.24926300  1
  F  F13  1  0.26625000  0.58644600  0.35032200  1
  F  F14  1  0.60103800  0.25000000  0.00000000  1
  F  F15  1  0.01698800  0.24688700  0.59958400  1
  F  F16  1  0.73229500  0.91666700  0.06562800  1
  F  F17  1  0.06708300  0.58022100  0.75073700  1
  F  F18  1  0.41740400  0.25311300  0.40041600  1
  F  F19  1  0.59449300  0.74989200  0.59478400  1
  F  F20  1  0.26145100  0.08344100  0.92782600  1
  F  F21  1  0.73884000  0.41677400  0.66695800  1
  F  F22  1  0.91593000  0.91355400  0.64967800  1
  F  F23  1  0.66666700  0.58333300  0.93437200  1
