# generated using pymatgen
data_Zr7VO16
_symmetry_space_group_name_H-M   'P 1'
_cell_length_a   7.27948206
_cell_length_b   7.30463437
_cell_length_c   12.76197279
_cell_angle_alpha   104.06454572
_cell_angle_beta   73.39863053
_cell_angle_gamma   119.83652709
_symmetry_Int_Tables_number   1
_chemical_formula_structural   Zr7VO16
_chemical_formula_sum   'Zr14 V2 O32'
_cell_volume   559.94884001
_cell_formula_units_Z   2
loop_
 _symmetry_equiv_pos_site_id
 _symmetry_equiv_pos_as_xyz
  1  'x, y, z'
loop_
 _atom_site_type_symbol
 _atom_site_label
 _atom_site_symmetry_multiplicity
 _atom_site_fract_x
 _atom_site_fract_y
 _atom_site_fract_z
 _atom_site_occupancy
  Zr  Zr0  1  0.61286900  0.36705300  0.39087100  1
  Zr  Zr1  1  0.61296000  0.86706200  0.89083000  1
  Zr  Zr2  1  0.87544400  0.63197900  0.13117000  1
  Zr  Zr3  1  0.87555700  0.13201000  0.63113300  1
  Zr  Zr4  1  0.12877900  0.37986500  0.37132300  1
  Zr  Zr5  1  0.12885600  0.87976200  0.87131400  1
  Zr  Zr6  1  0.12378200  0.87756900  0.37044100  1
  Zr  Zr7  1  0.12378200  0.37747900  0.87040300  1
  Zr  Zr8  1  0.63340300  0.87749900  0.37048200  1
  Zr  Zr9  1  0.63346900  0.37751700  0.87047500  1
  Zr  Zr10  1  0.87881000  0.12624400  0.12381600  1
  Zr  Zr11  1  0.87885200  0.62624800  0.62378600  1
  Zr  Zr12  1  0.37440000  0.12630100  0.12371100  1
  Zr  Zr13  1  0.37445600  0.62629300  0.62373600  1
  V  V14  1  0.35899300  0.08885600  0.62141100  1
  V  V15  1  0.35890500  0.58882000  0.12141700  1
  O  O16  1  0.42274600  0.01387200  0.41816100  1
  O  O17  1  0.42275000  0.51385000  0.91815700  1
  O  O18  1  0.30740500  0.64958800  0.28289800  1
  O  O19  1  0.30731600  0.14957200  0.78292600  1
  O  O20  1  0.52911200  0.87056900  0.06247000  1
  O  O21  1  0.52911500  0.37056200  0.56248300  1
  O  O22  1  0.91818000  0.01692500  0.43028000  1
  O  O23  1  0.91826600  0.51693100  0.93022100  1
  O  O24  1  0.78829600  0.62913300  0.30231600  1
  O  O25  1  0.78834300  0.12918800  0.80230900  1
  O  O26  1  0.68562000  0.27560800  0.15492200  1
  O  O27  1  0.68574100  0.77562000  0.65491400  1
  O  O28  1  0.05372500  0.89885000  0.04152400  1
  O  O29  1  0.05379800  0.39903700  0.54149100  1
  O  O30  1  0.17468200  0.27357200  0.17477700  1
  O  O31  1  0.17470500  0.77355500  0.67478300  1
  O  O32  1  0.82533800  0.23316200  0.32581300  1
  O  O33  1  0.82536300  0.73315700  0.82581600  1
  O  O34  1  0.33188200  0.23378500  0.32633900  1
  O  O35  1  0.33215700  0.73372600  0.82612000  1
  O  O36  1  0.16567600  0.86568400  0.20502000  1
  O  O37  1  0.16565100  0.36567500  0.70501400  1
  O  O38  1  0.74337500  0.86518400  0.20503000  1
  O  O39  1  0.74335100  0.36515500  0.70502300  1
  O  O40  1  0.09839900  0.49349600  0.08121700  1
  O  O41  1  0.09844100  0.99350600  0.58125100  1
  O  O42  1  0.56410300  0.49314600  0.08165200  1
  O  O43  1  0.56414100  0.99309200  0.58164400  1
  O  O44  1  0.95118900  0.60606300  0.45226900  1
  O  O45  1  0.95118700  0.10604500  0.95227000  1
  O  O46  1  0.45333600  0.60608100  0.45229800  1
  O  O47  1  0.45330800  0.10606400  0.95226800  1
