# generated using pymatgen
data_Na6CoO4
_symmetry_space_group_name_H-M   'P 1'
_cell_length_a   7.65694200
_cell_length_b   9.66324396
_cell_length_c   9.66320137
_cell_angle_alpha   104.81693579
_cell_angle_beta   113.33867038
_cell_angle_gamma   66.66179836
_symmetry_Int_Tables_number   1
_chemical_formula_structural   Na6CoO4
_chemical_formula_sum   'Na24 Co4 O16'
_cell_volume   598.62319050
_cell_formula_units_Z   4
loop_
 _symmetry_equiv_pos_site_id
 _symmetry_equiv_pos_as_xyz
  1  'x, y, z'
loop_
 _atom_site_type_symbol
 _atom_site_label
 _atom_site_symmetry_multiplicity
 _atom_site_fract_x
 _atom_site_fract_y
 _atom_site_fract_z
 _atom_site_occupancy
  Na  Na0  1  0.28481300  0.69700200  0.83940300  1
  Na  Na1  1  0.28481300  0.19700200  0.33940300  1
  Na  Na2  1  0.85758100  0.41061400  0.12579100  1
  Na  Na3  1  0.85758100  0.91061400  0.62579100  1
  Na  Na4  1  0.14240500  0.08941500  0.94698900  1
  Na  Na5  1  0.14240500  0.58941500  0.44698900  1
  Na  Na6  1  0.85757400  0.69699900  0.83940400  1
  Na  Na7  1  0.85757400  0.19699900  0.33940400  1
  Na  Na8  1  0.14240100  0.37579600  0.66060900  1
  Na  Na9  1  0.14240100  0.87579600  0.16060900  1
  Na  Na10  1  0.71517700  0.08941200  0.94699300  1
  Na  Na11  1  0.71517700  0.58941200  0.44699300  1
  Na  Na12  1  0.53721500  0.70270200  0.16546600  1
  Na  Na13  1  0.53721500  0.20270200  0.66546600  1
  Na  Na14  1  0.53721900  0.89685100  0.97129600  1
  Na  Na15  1  0.53721900  0.39685100  0.47129600  1
  Na  Na16  1  0.92553400  0.70269100  0.16545600  1
  Na  Na17  1  0.92553400  0.20269100  0.66545600  1
  Na  Na18  1  0.07444600  0.41546400  0.95268300  1
  Na  Na19  1  0.07444600  0.91546400  0.45268300  1
  Na  Na20  1  0.46276500  0.22130600  0.14684000  1
  Na  Na21  1  0.46276500  0.72130600  0.64684000  1
  Na  Na22  1  0.46276400  0.41547700  0.95269100  1
  Na  Na23  1  0.46276400  0.91547700  0.45269100  1
  Co  Co24  1  0.66666000  0.96248300  0.29580700  1
  Co  Co25  1  0.33332400  0.04581500  0.71247500  1
  Co  Co26  1  0.66666000  0.46248300  0.79580700  1
  Co  Co27  1  0.33332400  0.54581500  0.21247500  1
  O  O28  1  0.66663400  0.63097700  0.96430600  1
  O  O29  1  0.66663400  0.13097700  0.46430600  1
  O  O30  1  0.33332900  0.21432500  0.88095800  1
  O  O31  1  0.33332900  0.71432500  0.38095800  1
  O  O32  1  0.37878200  0.47809100  0.66746300  1
  O  O33  1  0.37878200  0.97809100  0.16746300  1
  O  O34  1  0.81061300  0.26218200  0.88338700  1
  O  O35  1  0.81061300  0.76218200  0.38338700  1
  O  O36  1  0.81059700  0.47807500  0.66746400  1
  O  O37  1  0.81059700  0.97807500  0.16746400  1
  O  O38  1  0.18939000  0.41747100  0.22806800  1
  O  O39  1  0.18939000  0.91747100  0.72806800  1
  O  O40  1  0.18937100  0.63338700  0.01216800  1
  O  O41  1  0.18937100  0.13338700  0.51216800  1
  O  O42  1  0.62120500  0.41747800  0.22809100  1
  O  O43  1  0.62120500  0.91747800  0.72809100  1
