# generated using pymatgen
data_Fe2OF3
_symmetry_space_group_name_H-M   'P 1'
_cell_length_a   4.85121700
_cell_length_b   9.68896500
_cell_length_c   3.10580800
_cell_angle_alpha   90.00000000
_cell_angle_beta   90.00000000
_cell_angle_gamma   90.00000000
_symmetry_Int_Tables_number   1
_chemical_formula_structural   Fe2OF3
_chemical_formula_sum   'Fe4 O2 F6'
_cell_volume   145.98313734
_cell_formula_units_Z   2
loop_
 _symmetry_equiv_pos_site_id
 _symmetry_equiv_pos_as_xyz
  1  'x, y, z'
loop_
 _atom_site_type_symbol
 _atom_site_label
 _atom_site_symmetry_multiplicity
 _atom_site_fract_x
 _atom_site_fract_y
 _atom_site_fract_z
 _atom_site_occupancy
  Fe  Fe0  1  0.03200600  0.98700600  0.00000000  1
  Fe  Fe1  1  0.97670200  0.49518400  0.00000000  1
  Fe  Fe2  1  0.53200600  0.26299400  0.50000000  1
  Fe  Fe3  1  0.47670200  0.75481600  0.50000000  1
  O  O4  1  0.19153800  0.90927400  0.50000000  1
  O  O5  1  0.69153800  0.34072600  0.00000000  1
  F  F6  1  0.20214800  0.39259800  0.50000000  1
  F  F7  1  0.30354900  0.15356200  0.00000000  1
  F  F8  1  0.29405800  0.64502600  0.00000000  1
  F  F9  1  0.70214800  0.85740200  0.00000000  1
  F  F10  1  0.79405800  0.60497400  0.50000000  1
  F  F11  1  0.80354900  0.09643800  0.50000000  1
