# generated using pymatgen
data_MnP2O7
_symmetry_space_group_name_H-M   'P 1'
_cell_length_a   5.20685616
_cell_length_b   6.27306995
_cell_length_c   9.40262148
_cell_angle_alpha   109.03305342
_cell_angle_beta   100.51736692
_cell_angle_gamma   103.85475816
_symmetry_Int_Tables_number   1
_chemical_formula_structural   MnP2O7
_chemical_formula_sum   'Mn2 P4 O14'
_cell_volume   270.27759036
_cell_formula_units_Z   2
loop_
 _symmetry_equiv_pos_site_id
 _symmetry_equiv_pos_as_xyz
  1  'x, y, z'
loop_
 _atom_site_type_symbol
 _atom_site_label
 _atom_site_symmetry_multiplicity
 _atom_site_fract_x
 _atom_site_fract_y
 _atom_site_fract_z
 _atom_site_occupancy
  Mn  Mn0  1  0.10498800  0.60457700  0.35732200  1
  Mn  Mn1  1  0.89501200  0.39542300  0.64267800  1
  P  P2  1  0.26336000  0.15172900  0.38464100  1
  P  P3  1  0.56572900  0.68042400  0.85419600  1
  P  P4  1  0.43427100  0.31957600  0.14580400  1
  P  P5  1  0.73664000  0.84827100  0.61535900  1
  O  O6  1  0.07946500  0.90267500  0.35272800  1
  O  O7  1  0.08371900  0.31974000  0.41027100  1
  O  O8  1  0.26431800  0.53291700  0.77711000  1
  O  O9  1  0.23291500  0.46325800  0.16331400  1
  O  O10  1  0.36082400  0.17598100  0.97063400  1
  O  O11  1  0.48228200  0.75346300  0.47480500  1
  O  O12  1  0.63931000  0.86448900  0.76803100  1
  O  O13  1  0.36069000  0.13551100  0.23196900  1
  O  O14  1  0.51771800  0.24653700  0.52519500  1
  O  O15  1  0.63917600  0.82401900  0.02936600  1
  O  O16  1  0.76708500  0.53674200  0.83668600  1
  O  O17  1  0.73568200  0.46708300  0.22289000  1
  O  O18  1  0.91628100  0.68026000  0.58972900  1
  O  O19  1  0.92053500  0.09732500  0.64727200  1
