# generated using pymatgen
data_Ti9Fe11O30
_symmetry_space_group_name_H-M   'P 1'
_cell_length_a   8.91496509
_cell_length_b   7.60586595
_cell_length_c   9.19062036
_cell_angle_alpha   72.18187822
_cell_angle_beta   98.98811550
_cell_angle_gamma   113.08114687
_symmetry_Int_Tables_number   1
_chemical_formula_structural   Ti9Fe11O30
_chemical_formula_sum   'Ti9 Fe11 O30'
_cell_volume   545.32671635
_cell_formula_units_Z   1
loop_
 _symmetry_equiv_pos_site_id
 _symmetry_equiv_pos_as_xyz
  1  'x, y, z'
loop_
 _atom_site_type_symbol
 _atom_site_label
 _atom_site_symmetry_multiplicity
 _atom_site_fract_x
 _atom_site_fract_y
 _atom_site_fract_z
 _atom_site_occupancy
  Ti  Ti0  1  0.74028400  0.34245700  0.77435500  1
  Ti  Ti1  1  0.94561900  0.73944500  0.17199300  1
  Ti  Ti2  1  0.85341400  0.86063800  0.42261200  1
  Ti  Ti3  1  0.65865200  0.45966000  0.02819300  1
  Ti  Ti4  1  0.45866000  0.05889200  0.62432300  1
  Ti  Ti5  1  0.34123800  0.53838300  0.97663700  1
  Ti  Ti6  1  0.26184800  0.66545500  0.22790200  1
  Ti  Ti7  1  0.14182700  0.13501800  0.57092900  1
  Ti  Ti8  1  0.05701100  0.26277300  0.82726200  1
  Fe  Fe9  1  0.74029300  0.83557500  0.77838700  1
  Fe  Fe10  1  0.94259500  0.23619000  0.17748300  1
  Fe  Fe11  1  0.85734700  0.35828600  0.42514100  1
  Fe  Fe12  1  0.45269700  0.55919900  0.62370700  1
  Fe  Fe13  1  0.54065100  0.94035000  0.37382800  1
  Fe  Fe14  1  0.34271400  0.03731700  0.97517800  1
  Fe  Fe15  1  0.65921200  0.96228600  0.02896700  1
  Fe  Fe16  1  0.54020800  0.43569700  0.37729000  1
  Fe  Fe17  1  0.13999000  0.63794100  0.57336900  1
  Fe  Fe18  1  0.25790300  0.15943500  0.22331300  1
  Fe  Fe19  1  0.06253400  0.76221000  0.82297600  1
  O  O20  1  0.97647100  0.01895600  0.76442900  1
  O  O21  1  0.88749200  0.21482800  0.95143400  1
  O  O22  1  0.91359300  0.39001500  0.65390100  1
  O  O23  1  0.97264000  0.16823900  0.42634400  1
  O  O24  1  0.80872800  0.57970200  0.83434000  1
  O  O25  1  0.59287800  0.22967500  0.96121800  1
  O  O26  1  0.79165500  0.62762900  0.36177000  1
  O  O27  1  0.63430900  0.02916700  0.77045800  1
  O  O28  1  0.82983300  0.43716100  0.17093900  1
  O  O29  1  0.69251200  0.81215700  0.56290600  1
  O  O30  1  0.51829300  0.59665500  0.85114100  1
  O  O31  1  0.72109900  0.98662100  0.25485200  1
  O  O32  1  0.77274200  0.76506100  0.02138000  1
  O  O33  1  0.56933100  0.35905500  0.63541400  1
  O  O34  1  0.60646200  0.18242100  0.44173200  1
  O  O35  1  0.38352100  0.82312800  0.56594300  1
  O  O36  1  0.22646700  0.23714800  0.96691500  1
  O  O37  1  0.43068000  0.63119700  0.37121700  1
  O  O38  1  0.28723300  0.01576400  0.74888100  1
  O  O39  1  0.48573900  0.41075700  0.14529100  1
  O  O40  1  0.31062200  0.18456400  0.45231800  1
  O  O41  1  0.16912200  0.56250400  0.83032300  1
  O  O42  1  0.36671700  0.95983800  0.21972400  1
  O  O43  1  0.41652400  0.77267100  0.03644800  1
  O  O44  1  0.20919500  0.36789500  0.63946400  1
  O  O45  1  0.19173300  0.43160400  0.15883300  1
  O  O46  1  0.02770900  0.84188700  0.56902400  1
  O  O47  1  0.08794800  0.61478600  0.34486400  1
  O  O48  1  0.11051400  0.78611300  0.05014000  1
  O  O49  1  0.01353900  0.97559500  0.23450900  1
