# generated using pymatgen
data_V2Ge2O7
_symmetry_space_group_name_H-M   'P 1'
_cell_length_a   5.59561028
_cell_length_b   5.59557279
_cell_length_c   10.08593070
_cell_angle_alpha   103.19397957
_cell_angle_beta   76.80621254
_cell_angle_gamma   82.99112316
_symmetry_Int_Tables_number   1
_chemical_formula_structural   V2Ge2O7
_chemical_formula_sum   'V4 Ge4 O14'
_cell_volume   294.25146866
_cell_formula_units_Z   2
loop_
 _symmetry_equiv_pos_site_id
 _symmetry_equiv_pos_as_xyz
  1  'x, y, z'
loop_
 _atom_site_type_symbol
 _atom_site_label
 _atom_site_symmetry_multiplicity
 _atom_site_fract_x
 _atom_site_fract_y
 _atom_site_fract_z
 _atom_site_occupancy
  V  V0  1  0.37878100  0.77307500  0.02117200  1
  V  V1  1  0.27303600  0.87876300  0.47885000  1
  V  V2  1  0.72700900  0.12117400  0.52115800  1
  V  V3  1  0.62119500  0.22704300  0.97886500  1
  Ge  Ge4  1  0.80754300  0.69433200  0.70616200  1
  Ge  Ge5  1  0.80564700  0.69244900  0.20614800  1
  Ge  Ge6  1  0.19434900  0.30757400  0.79386000  1
  Ge  Ge7  1  0.19241900  0.30563100  0.29386900  1
  O  O8  1  0.08132900  0.58130100  0.74998600  1
  O  O9  1  0.91873700  0.41871700  0.24998600  1
  O  O10  1  0.67801400  0.46625300  0.61419800  1
  O  O11  1  0.03373000  0.82195500  0.11419500  1
  O  O12  1  0.96626700  0.17800100  0.88579500  1
  O  O13  1  0.32196900  0.53371700  0.38579900  1
  O  O14  1  0.39989800  0.40857600  0.89918900  1
  O  O15  1  0.09144100  0.10009100  0.39918500  1
  O  O16  1  0.90854700  0.89980600  0.60078500  1
  O  O17  1  0.60017100  0.59146900  0.10079000  1
  O  O18  1  0.37586100  0.08451900  0.63450100  1
  O  O19  1  0.41548900  0.12412800  0.13450900  1
  O  O20  1  0.58448100  0.87590100  0.86550300  1
  O  O21  1  0.62408600  0.91552500  0.36549400  1
