# generated using pymatgen
data_Zr7VO16
_symmetry_space_group_name_H-M   'P 1'
_cell_length_a   6.92282797
_cell_length_b   13.20485555
_cell_length_c   7.27427302
_cell_angle_alpha   103.46245346
_cell_angle_beta   64.14110412
_cell_angle_gamma   90.52408219
_symmetry_Int_Tables_number   1
_chemical_formula_structural   Zr7VO16
_chemical_formula_sum   'Zr14 V2 O32'
_cell_volume   578.69908012
_cell_formula_units_Z   2
loop_
 _symmetry_equiv_pos_site_id
 _symmetry_equiv_pos_as_xyz
  1  'x, y, z'
loop_
 _atom_site_type_symbol
 _atom_site_label
 _atom_site_symmetry_multiplicity
 _atom_site_fract_x
 _atom_site_fract_y
 _atom_site_fract_z
 _atom_site_occupancy
  Zr  Zr0  1  0.21749500  0.00981200  0.05330100  1
  Zr  Zr1  1  0.71749000  0.50981200  0.05331000  1
  Zr  Zr2  1  0.99527400  0.27561900  0.00709000  1
  Zr  Zr3  1  0.49531500  0.77564100  0.00708500  1
  Zr  Zr4  1  0.73303900  0.02759700  0.51745100  1
  Zr  Zr5  1  0.23304100  0.52759800  0.51744500  1
  Zr  Zr6  1  0.46950700  0.25634600  0.56477900  1
  Zr  Zr7  1  0.96952500  0.75635800  0.56480100  1
  Zr  Zr8  1  0.02723500  0.24361700  0.44382800  1
  Zr  Zr9  1  0.52722000  0.74361000  0.44382500  1
  Zr  Zr10  1  0.76225700  0.47415500  0.49062700  1
  Zr  Zr11  1  0.26225000  0.97415700  0.49063000  1
  Zr  Zr12  1  0.27816600  0.49382200  0.95193600  1
  Zr  Zr13  1  0.77816400  0.99382600  0.95193200  1
  V  V14  1  0.04679200  0.72677400  0.99498300  1
  V  V15  1  0.54673200  0.22679200  0.99488000  1
  O  O16  1  0.08959600  0.06633200  0.39552600  1
  O  O17  1  0.58959500  0.56633100  0.39553100  1
  O  O18  1  0.39720700  0.24089800  0.27417400  1
  O  O19  1  0.89728300  0.74088700  0.27415600  1
  O  O20  1  0.86184700  0.00551100  0.19513900  1
  O  O21  1  0.36184300  0.50551200  0.19513700  1
  O  O22  1  0.45688400  0.09690400  0.50449000  1
  O  O23  1  0.95691700  0.59690700  0.50443200  1
  O  O24  1  0.70773000  0.34435500  0.00234700  1
  O  O25  1  0.20777800  0.84435200  0.00230100  1
  O  O26  1  0.11938800  0.17584500  0.12287700  1
  O  O27  1  0.61940900  0.67581700  0.12284100  1
  O  O28  1  0.77288300  0.30845900  0.36960000  1
  O  O29  1  0.27290300  0.80847100  0.36957000  1
  O  O30  1  0.52364500  0.06509900  0.87575000  1
  O  O31  1  0.02367300  0.56509200  0.87575900  1
  O  O32  1  0.96999000  0.44334900  0.12807100  1
  O  O33  1  0.47001800  0.94337800  0.12813500  1
  O  O34  1  0.72148800  0.19671800  0.63653800  1
  O  O35  1  0.22148800  0.69671400  0.63654100  1
  O  O36  1  0.34680800  0.31023700  0.90004900  1
  O  O37  1  0.84685500  0.81024600  0.90004800  1
  O  O38  1  0.04618100  0.40310800  0.48973300  1
  O  O39  1  0.54621000  0.90309200  0.48969900  1
  O  O40  1  0.79984800  0.15458500  0.97426400  1
  O  O41  1  0.29993100  0.65458700  0.97424500  1
  O  O42  1  0.63201300  0.49459900  0.80754800  1
  O  O43  1  0.13199500  0.99460800  0.80755200  1
  O  O44  1  0.12628800  0.25589700  0.68352700  1
  O  O45  1  0.62633300  0.75590900  0.68353900  1
  O  O46  1  0.39823300  0.43033100  0.61649000  1
  O  O47  1  0.89823200  0.93033100  0.61648300  1
