# generated using pymatgen
data_MgFeO2
_symmetry_space_group_name_H-M   'P 1'
_cell_length_a   2.97602603
_cell_length_b   8.42931166
_cell_length_c   8.53026043
_cell_angle_alpha   85.38826931
_cell_angle_beta   79.75005410
_cell_angle_gamma   79.84281916
_symmetry_Int_Tables_number   1
_chemical_formula_structural   MgFeO2
_chemical_formula_sum   'Mg4 Fe4 O8'
_cell_volume   207.00794909
_cell_formula_units_Z   4
loop_
 _symmetry_equiv_pos_site_id
 _symmetry_equiv_pos_as_xyz
  1  'x, y, z'
loop_
 _atom_site_type_symbol
 _atom_site_label
 _atom_site_symmetry_multiplicity
 _atom_site_fract_x
 _atom_site_fract_y
 _atom_site_fract_z
 _atom_site_occupancy
  Mg  Mg0  1  0.35765574  0.06333444  0.23076795  1
  Mg  Mg1  1  0.63795317  0.91674381  0.79699717  1
  Mg  Mg2  1  0.07995787  0.70685886  0.13498090  1
  Mg  Mg3  1  0.91641864  0.27395901  0.89290523  1
  Fe  Fe4  1  0.62285384  0.18413925  0.56770888  1
  Fe  Fe5  1  0.20290683  0.37795164  0.21580912  1
  Fe  Fe6  1  0.79370316  0.60252264  0.81122923  1
  Fe  Fe7  1  0.37535687  0.79286662  0.45869312  1
  O  O8  1  0.81484586  0.75592988  0.61295846  1
  O  O9  1  0.36528463  0.42386680  0.84666492  1
  O  O10  1  0.62786226  0.55815648  0.18648625  1
  O  O11  1  0.18217702  0.22232486  0.41462843  1
  O  O12  1  0.07944288  0.09605984  0.73757422  1
  O  O13  1  0.84722908  0.19815877  0.11727926  1
  O  O14  1  0.91664433  0.88410930  0.29014658  1
  O  O15  1  0.14798282  0.78235478  0.91078627  1
