# generated using pymatgen
data_MgSn2O5
_symmetry_space_group_name_H-M   'P 1'
_cell_length_a   3.41917449
_cell_length_b   5.19845583
_cell_length_c   12.70695837
_cell_angle_alpha   89.92001181
_cell_angle_beta   90.69564684
_cell_angle_gamma   89.64460498
_symmetry_Int_Tables_number   1
_chemical_formula_structural   MgSn2O5
_chemical_formula_sum   'Mg2 Sn4 O10'
_cell_volume   225.83767512
_cell_formula_units_Z   2
loop_
 _symmetry_equiv_pos_site_id
 _symmetry_equiv_pos_as_xyz
  1  'x, y, z'
loop_
 _atom_site_type_symbol
 _atom_site_label
 _atom_site_symmetry_multiplicity
 _atom_site_fract_x
 _atom_site_fract_y
 _atom_site_fract_z
 _atom_site_occupancy
  Mg  Mg0  1  0.74489619  0.89581516  0.25104145  1
  Mg  Mg1  1  0.25383234  0.10510394  0.74848894  1
  Sn  Sn2  1  0.25163682  0.39949730  0.10706185  1
  Sn  Sn3  1  0.74357302  0.60197836  0.89311572  1
  Sn  Sn4  1  0.75586356  0.60181657  0.60666084  1
  Sn  Sn5  1  0.24813181  0.39837593  0.39321491  1
  O  O6  1  0.75530687  0.41152015  0.74981148  1
  O  O7  1  0.24734960  0.58935478  0.25014134  1
  O  O8  1  0.74882034  0.59073553  0.06898230  1
  O  O9  1  0.24631873  0.41129178  0.93122687  1
  O  O10  1  0.74757786  0.58998869  0.43070748  1
  O  O11  1  0.25628104  0.41049728  0.56882941  1
  O  O12  1  0.23107050  0.03902462  0.35508516  1
  O  O13  1  0.77491380  0.96119092  0.64446089  1
  O  O14  1  0.71714308  0.96020024  0.85326343  1
  O  O15  1  0.26772843  0.04063475  0.14616789  1
