# generated using pymatgen
data_CrF4
_symmetry_space_group_name_H-M   'P 1'
_cell_length_a   5.50476809
_cell_length_b   5.50488297
_cell_length_c   6.46773913
_cell_angle_alpha   116.03074592
_cell_angle_beta   115.17229028
_cell_angle_gamma   89.87191931
_symmetry_Int_Tables_number   1
_chemical_formula_structural   CrF4
_chemical_formula_sum   'Cr2 F8'
_cell_volume   155.23325988
_cell_formula_units_Z   2
loop_
 _symmetry_equiv_pos_site_id
 _symmetry_equiv_pos_as_xyz
  1  'x, y, z'
loop_
 _atom_site_type_symbol
 _atom_site_label
 _atom_site_symmetry_multiplicity
 _atom_site_fract_x
 _atom_site_fract_y
 _atom_site_fract_z
 _atom_site_occupancy
  Cr  Cr0  1  0.99645376  0.50014471  0.99886731  1
  Cr  Cr1  1  0.50032398  0.00054117  0.99924787  1
  F  F2  1  0.95012990  0.44675421  0.23498530  1
  F  F3  1  0.70906478  0.21597746  0.75741002  1
  F  F4  1  0.04574172  0.54952701  0.76134361  1
  F  F5  1  0.21441084  0.04928218  0.76385927  1
  F  F6  1  0.28507557  0.78338407  0.24014816  1
  F  F7  1  0.45542039  0.28615540  0.24206106  1
  F  F8  1  0.78116555  0.94542571  0.23330730  1
  F  F9  1  0.54686052  0.71544607  0.75623810  1
