# generated using pymatgen
data_VO2
_symmetry_space_group_name_H-M   'P 1'
_cell_length_a   5.93079576
_cell_length_b   5.89812424
_cell_length_c   5.97907115
_cell_angle_alpha   59.78477540
_cell_angle_beta   59.41957918
_cell_angle_gamma   60.84150504
_symmetry_Int_Tables_number   1
_chemical_formula_structural   VO2
_chemical_formula_sum   'V4 O8'
_cell_volume   147.89412493
_cell_formula_units_Z   4
loop_
 _symmetry_equiv_pos_site_id
 _symmetry_equiv_pos_as_xyz
  1  'x, y, z'
loop_
 _atom_site_type_symbol
 _atom_site_label
 _atom_site_symmetry_multiplicity
 _atom_site_fract_x
 _atom_site_fract_y
 _atom_site_fract_z
 _atom_site_occupancy
  V  V0  1  0.49998289  0.50001614  0.49999494  1
  V  V1  1  0.00005055  0.50000437  0.49997417  1
  V  V2  1  0.50000387  0.49999833  -0.00001925  1
  V  V3  1  0.50003676  -0.00004502  0.50001199  1
  O  O4  1  0.29985807  0.73629020  0.73846900  1
  O  O5  1  0.74275469  0.73616559  0.72239299  1
  O  O6  1  0.72774951  0.29894064  0.74099933  1
  O  O7  1  0.73125751  0.72872027  0.29831211  1
  O  O8  1  0.25722491  0.26382650  0.27761511  1
  O  O9  1  0.70014233  0.26371938  0.26152516  1
  O  O10  1  0.26872249  0.27126304  0.70172341  1
  O  O11  1  0.27221341  0.70110257  0.25900105  1
