# generated using pymatgen
data_Zn(FeO2)2
_symmetry_space_group_name_H-M   'P 1'
_cell_length_a   5.05723724
_cell_length_b   5.89671453
_cell_length_c   10.23256149
_cell_angle_alpha   89.84607817
_cell_angle_beta   89.60404561
_cell_angle_gamma   89.91552050
_symmetry_Int_Tables_number   1
_chemical_formula_structural   Zn(FeO2)2
_chemical_formula_sum   'Zn4 Fe8 O16'
_cell_volume   305.13736743
_cell_formula_units_Z   4
loop_
 _symmetry_equiv_pos_site_id
 _symmetry_equiv_pos_as_xyz
  1  'x, y, z'
loop_
 _atom_site_type_symbol
 _atom_site_label
 _atom_site_symmetry_multiplicity
 _atom_site_fract_x
 _atom_site_fract_y
 _atom_site_fract_z
 _atom_site_occupancy
  Zn  Zn0  1  0.85558244  0.25011556  0.75093229  1
  Zn  Zn1  1  0.14899910  0.75032846  0.25013732  1
  Zn  Zn2  1  0.53789260  0.25039472  0.24993104  1
  Zn  Zn3  1  0.47073736  0.74969916  0.74997348  1
  Fe  Fe4  1  0.50921995  0.75006532  0.48656832  1
  Fe  Fe5  1  0.50973001  0.74990070  0.01161050  1
  Fe  Fe6  1  0.49056839  0.25033265  0.51530831  1
  Fe  Fe7  1  0.48949037  0.24994719  0.98717982  1
  Fe  Fe8  1  0.99957248  0.50256699  0.49982006  1
  Fe  Fe9  1  -0.00062229  -0.00050419  0.00059236  1
  Fe  Fe10  1  0.99979912  0.99727911  0.49957911  1
  Fe  Fe11  1  0.00057109  0.50065784  0.00070504  1
  O  O12  1  0.84535820  0.75041284  0.39333242  1
  O  O13  1  0.84584073  0.74961830  0.10736193  1
  O  O14  1  0.14947916  0.24937875  0.60665944  1
  O  O15  1  0.15064091  0.25035186  0.89355421  1
  O  O16  1  0.19967658  0.74957246  0.59697470  1
  O  O17  1  0.20191006  0.75014676  0.90211996  1
  O  O18  1  0.79862847  0.25012414  0.40307956  1
  O  O19  1  0.79922940  0.24980979  0.09741297  1
  O  O20  1  0.66392306  0.50959552  0.61205554  1
  O  O21  1  0.66128168  -0.00016120  0.89014981  1
  O  O22  1  0.33547200  -0.00552167  0.38658830  1
  O  O23  1  0.33863016  0.49856776  0.10973350  1
  O  O24  1  0.33639361  0.50508592  0.38729882  1
  O  O25  1  0.33910817  0.00000096  0.10936820  1
  O  O26  1  0.66257143  0.99070273  0.61137605  1
  O  O27  1  0.66031573  0.50153159  0.89059695  1
