# generated using pymatgen
data_MgMnO2
_symmetry_space_group_name_H-M   'P 1'
_cell_length_a   3.03269732
_cell_length_b   8.36774797
_cell_length_c   8.45059351
_cell_angle_alpha   90.32380704
_cell_angle_beta   79.66488026
_cell_angle_gamma   79.86361342
_symmetry_Int_Tables_number   1
_chemical_formula_structural   MgMnO2
_chemical_formula_sum   'Mg4 Mn4 O8'
_cell_volume   207.52364195
_cell_formula_units_Z   4
loop_
 _symmetry_equiv_pos_site_id
 _symmetry_equiv_pos_as_xyz
  1  'x, y, z'
loop_
 _atom_site_type_symbol
 _atom_site_label
 _atom_site_symmetry_multiplicity
 _atom_site_fract_x
 _atom_site_fract_y
 _atom_site_fract_z
 _atom_site_occupancy
  Mg  Mg0  1  0.34498992  0.08358815  0.25411328  1
  Mg  Mg1  1  0.65704230  0.89526747  0.77701019  1
  Mg  Mg2  1  0.06666174  0.72801557  0.12171150  1
  Mg  Mg3  1  0.92437387  0.25069587  0.90958914  1
  Mn  Mn4  1  0.59958906  0.20986960  0.60030108  1
  Mn  Mn5  1  0.16096920  0.40714626  0.24972044  1
  Mn  Mn6  1  0.82359797  0.57176613  0.78182878  1
  Mn  Mn7  1  0.38617962  0.76911281  0.43108377  1
  O  O8  1  0.82646236  0.72637696  0.59064703  1
  O  O9  1  0.40618773  0.38116494  0.81669906  1
  O  O10  1  0.58391501  0.59756028  0.21466322  1
  O  O11  1  0.15962284  0.25247735  0.44063537  1
  O  O12  1  0.09019861  0.06444199  0.74951374  1
  O  O13  1  0.82590616  0.22784163  0.14039871  1
  O  O14  1  0.91155912  0.91437699  0.28148585  1
  O  O15  1  0.16811347  0.75064000  0.89078185  1
