# generated using pymatgen
data_CrWO6
_symmetry_space_group_name_H-M   'P 1'
_cell_length_a   5.34233287
_cell_length_b   5.40890741
_cell_length_c   7.57604924
_cell_angle_alpha   89.24816225
_cell_angle_beta   134.62330005
_cell_angle_gamma   60.26662072
_symmetry_Int_Tables_number   1
_chemical_formula_structural   CrWO6
_chemical_formula_sum   'Cr1 W1 O6'
_cell_volume   109.73899652
_cell_formula_units_Z   1
loop_
 _symmetry_equiv_pos_site_id
 _symmetry_equiv_pos_as_xyz
  1  'x, y, z'
loop_
 _atom_site_type_symbol
 _atom_site_label
 _atom_site_symmetry_multiplicity
 _atom_site_fract_x
 _atom_site_fract_y
 _atom_site_fract_z
 _atom_site_occupancy
  Cr  Cr0  1  0.00012808  0.99899429  0.51734882  1
  W  W1  1  0.00267418  0.99339579  0.01890028  1
  O  O2  1  0.01272329  0.93477447  0.25989499  1
  O  O3  1  0.99377474  0.95606969  0.73366638  1
  O  O4  1  0.48330000  0.46235278  0.74017138  1
  O  O5  1  0.51813144  0.94781296  0.25315796  1
  O  O6  1  0.48812691  0.94704934  0.73785848  1
  O  O7  1  0.51803038  0.43351468  0.24878371  1
