# generated using pymatgen
data_Re(WO4)2
_symmetry_space_group_name_H-M   'P 1'
_cell_length_a   4.96724859
_cell_length_b   6.44511175
_cell_length_c   6.42484183
_cell_angle_alpha   114.52107607
_cell_angle_beta   116.40542093
_cell_angle_gamma   91.68664558
_symmetry_Int_Tables_number   1
_chemical_formula_structural   Re(WO4)2
_chemical_formula_sum   'Re1 W2 O8'
_cell_volume   161.72939384
_cell_formula_units_Z   1
loop_
 _symmetry_equiv_pos_site_id
 _symmetry_equiv_pos_as_xyz
  1  'x, y, z'
loop_
 _atom_site_type_symbol
 _atom_site_label
 _atom_site_symmetry_multiplicity
 _atom_site_fract_x
 _atom_site_fract_y
 _atom_site_fract_z
 _atom_site_occupancy
  Re  Re0  1  0.12453310  0.22324253  0.09958221  1
  W  W1  1  0.88265508  0.40588962  0.62464370  1
  W  W2  1  0.36671042  0.04054109  0.57458130  1
  O  O3  1  0.13410599  0.68790904  0.80762247  1
  O  O4  1  0.54094439  0.42932608  0.34379479  1
  O  O5  1  0.16119346  0.21685936  0.80239218  1
  O  O6  1  0.54818469  0.03291512  0.37891749  1
  O  O7  1  0.70815849  0.01711310  0.85573293  1
  O  O8  1  0.11508590  0.75869281  0.39153051  1
  O  O9  1  0.08835998  0.22968944  0.39708848  1
  O  O10  1  0.70172849  0.41345281  0.82072794  1
